<edges>

  <edge id="ni" from="1" to="0" priority="2" numLanes="1" speed="11.11" sidewalkWidth="2"/>
  <edge id="no" from="0" to="1" priority="1" numLanes="1" speed="11.11" sidewalkWidth="2"/>

  <edge id="ei" from="2" to="0" priority="2" numLanes="1" speed="11.11" sidewalkWidth="2"/>
  <edge id="eo" from="0" to="2" priority="1" numLanes="1" speed="11.11" sidewalkWidth="2"/>

  <edge id="si" from="3" to="0" priority="2" numLanes="1" speed="11.11" sidewalkWidth="2"/>
  <edge id="so" from="0" to="3" priority="1" numLanes="1" speed="11.11" sidewalkWidth="2"/>

  <edge id="wi" from="4" to="0" priority="2" numLanes="1" speed="11.11" sidewalkWidth="2"/>
  <edge id="wo" from="0" to="4" priority="1" numLanes="1" speed="11.11" sidewalkWidth="2"/>
</edges>
