<routes>
            <vType id="type1" accel="0.8" decel="4.5" sigma="0.5" length="5" maxSpeed="70"/>
            <vType id="rescue" vClass="emergency" speedFactor="1.5" guiShape="emergency">
                <param key="has.bluelight.device" value="true"/>
            </vType>
            <route id="ne" edges="ni eo"/>
            <route id="ns" edges="ni so"/>
            <route id="nw" edges="ni wo"/>
            <route id="en" edges="ei no"/>
            <route id="es" edges="ei so"/>
            <route id="ew" edges="ei wo"/>
            <route id="sn" edges="si no"/>
            <route id="se" edges="si eo"/>
            <route id="sw" edges="si wo"/>
            <route id="wn" edges="wi no"/>
            <route id="we" edges="wi eo"/>
            <route id="ws" edges="wi so"/>
        <vehicle id="type1_1" type="type1" route="ns" depart="0" />
<vehicle id="type1_2" type="type1" route="ns" depart="0" />
<vehicle id="type1_3" type="type1" route="ns" depart="0" />
<vehicle id="type1_4" type="type1" route="ns" depart="0" />
<vehicle id="type1_5" type="type1" route="ns" depart="0" />
<vehicle id="type1_6" type="type1" route="ns" depart="0" />
<vehicle id="type1_7" type="type1" route="ns" depart="0" />
<vehicle id="type1_8" type="type1" route="ns" depart="0" />
<vehicle id="type1_9" type="type1" route="ns" depart="0" />
<vehicle id="type1_10" type="type1" route="ns" depart="0" />
<vehicle id="type1_11" type="type1" route="ns" depart="0" />
<vehicle id="type1_12" type="type1" route="ns" depart="0" />
<vehicle id="type1_13" type="type1" route="ns" depart="0" />
<vehicle id="type1_14" type="type1" route="ns" depart="0" />
<vehicle id="type1_15" type="type1" route="ns" depart="0" />
<vehicle id="type1_16" type="type1" route="ns" depart="0" />
<vehicle id="type1_17" type="type1" route="ns" depart="0" />
<vehicle id="type1_18" type="type1" route="ns" depart="0" />
<vehicle id="type1_19" type="type1" route="ns" depart="0" />
<vehicle id="type1_20" type="type1" route="ns" depart="0" />
<vehicle id="type1_21" type="type1" route="ns" depart="0" />
<vehicle id="type1_22" type="type1" route="ns" depart="0" />
<vehicle id="type1_23" type="type1" route="ns" depart="0" />
<vehicle id="type1_24" type="type1" route="ns" depart="0" />
<vehicle id="type1_25" type="type1" route="ns" depart="0" />
<vehicle id="type1_26" type="type1" route="ns" depart="0" />
<vehicle id="type1_27" type="type1" route="ns" depart="0" />
<vehicle id="type1_28" type="type1" route="ns" depart="0" />
<vehicle id="type1_29" type="type1" route="ns" depart="0" />
<vehicle id="type1_30" type="type1" route="ns" depart="0" />
<vehicle id="type1_31" type="type1" route="ns" depart="0" />
<vehicle id="type1_32" type="type1" route="ns" depart="0" />
<vehicle id="type1_33" type="type1" route="ns" depart="0" />
<vehicle id="type1_34" type="type1" route="ns" depart="0" />
<vehicle id="type1_35" type="type1" route="ns" depart="0" />
<vehicle id="type1_36" type="type1" route="ns" depart="0" />
<vehicle id="type1_37" type="type1" route="ns" depart="0" />
<vehicle id="type1_38" type="type1" route="ns" depart="0" />
<vehicle id="type1_39" type="type1" route="ns" depart="0" />
<vehicle id="type1_40" type="type1" route="ns" depart="0" />
<vehicle id="type1_41" type="type1" route="ns" depart="0" />
<vehicle id="type1_42" type="type1" route="ns" depart="0" />
<vehicle id="type1_43" type="type1" route="ns" depart="0" />
<vehicle id="type1_44" type="type1" route="ns" depart="0" />
<vehicle id="type1_45" type="type1" route="ns" depart="0" />
<vehicle id="type1_46" type="type1" route="ns" depart="0" />
<vehicle id="type1_47" type="type1" route="ns" depart="0" />
<vehicle id="type1_48" type="type1" route="ns" depart="0" />
<vehicle id="type1_49" type="type1" route="ns" depart="0" />
<vehicle id="type1_50" type="type1" route="ns" depart="0" />
<vehicle id="type1_51" type="type1" route="ns" depart="0" />
<vehicle id="type1_52" type="type1" route="ns" depart="0" />
<vehicle id="type1_53" type="type1" route="ns" depart="0" />
<vehicle id="type1_54" type="type1" route="ns" depart="0" />
<vehicle id="type1_55" type="type1" route="ns" depart="0" />
<vehicle id="type1_56" type="type1" route="ns" depart="0" />
<vehicle id="type1_57" type="type1" route="ns" depart="0" />
<vehicle id="type1_58" type="type1" route="ns" depart="0" />
<vehicle id="type1_59" type="type1" route="ns" depart="0" />
<vehicle id="type1_60" type="type1" route="ns" depart="0" />
<vehicle id="type1_61" type="type1" route="ns" depart="0" />
<vehicle id="type1_62" type="type1" route="ns" depart="0" />
<vehicle id="type1_63" type="type1" route="ns" depart="0" />
<vehicle id="type1_64" type="type1" route="ns" depart="0" />
<vehicle id="type1_65" type="type1" route="ns" depart="0" />
<vehicle id="type1_66" type="type1" route="ns" depart="0" />
<vehicle id="type1_67" type="type1" route="ns" depart="0" />
<vehicle id="type1_68" type="type1" route="ns" depart="0" />
<vehicle id="type1_69" type="type1" route="ns" depart="0" />
<vehicle id="type1_70" type="type1" route="ns" depart="0" />
<vehicle id="type1_71" type="type1" route="ns" depart="0" />
<vehicle id="type1_72" type="type1" route="ns" depart="0" />
<vehicle id="type1_73" type="type1" route="ns" depart="0" />
<vehicle id="type1_74" type="type1" route="ns" depart="0" />
<vehicle id="type1_75" type="type1" route="ns" depart="0" />
<vehicle id="type1_76" type="type1" route="ns" depart="0" />
<vehicle id="type1_77" type="type1" route="ns" depart="0" />
<vehicle id="type1_78" type="type1" route="ns" depart="0" />
<vehicle id="type1_79" type="type1" route="ns" depart="0" />
<vehicle id="type1_80" type="type1" route="ns" depart="0" />
<vehicle id="type1_81" type="type1" route="ns" depart="0" />
<vehicle id="type1_82" type="type1" route="ns" depart="0" />
<vehicle id="type1_83" type="type1" route="ns" depart="0" />
<vehicle id="type1_84" type="type1" route="ns" depart="0" />
<vehicle id="type1_85" type="type1" route="ns" depart="0" />
<vehicle id="type1_86" type="type1" route="ns" depart="0" />
<vehicle id="type1_87" type="type1" route="ns" depart="0" />
<vehicle id="type1_88" type="type1" route="ns" depart="0" />
<vehicle id="type1_89" type="type1" route="ns" depart="0" />
<vehicle id="type1_90" type="type1" route="ns" depart="0" />
<vehicle id="type1_91" type="type1" route="ns" depart="0" />
<vehicle id="type1_92" type="type1" route="ns" depart="0" />
<vehicle id="type1_93" type="type1" route="ns" depart="0" />
<vehicle id="type1_94" type="type1" route="ns" depart="0" />
<vehicle id="type1_95" type="type1" route="ns" depart="0" />
<vehicle id="type1_96" type="type1" route="ns" depart="0" />
</routes>