<routes>
            <vType id="type1" accel="0.8" decel="4.5" sigma="0.5" length="5" maxSpeed="70"/>
            <vType id="rescue" vClass="emergency" speedFactor="1.5" guiShape="emergency">
                <param key="has.bluelight.device" value="true"/>
            </vType>
            <route id="ne" edges="ni eo"/>
            <route id="ns" edges="ni so"/>
            <route id="nw" edges="ni wo"/>
            <route id="en" edges="ei no"/>
            <route id="es" edges="ei so"/>
            <route id="ew" edges="ei wo"/>
            <route id="sn" edges="si no"/>
            <route id="se" edges="si eo"/>
            <route id="sw" edges="si wo"/>
            <route id="wn" edges="wi no"/>
            <route id="we" edges="wi eo"/>
            <route id="ws" edges="wi so"/>
        <vehicle id="type1_1" type="type1" route="nw" depart="0.04125923816713679" />
<vehicle id="type1_2" type="type1" route="ns" depart="0.8606449018304316" />
<vehicle id="type1_3" type="type1" route="sw" depart="0.9240368399007708" />
<vehicle id="type1_4" type="type1" route="ne" depart="1.09580089206481" />
<vehicle id="type1_5" type="type1" route="ws" depart="1.290951254463696" />
<vehicle id="type1_6" type="type1" route="wn" depart="1.6711296709089587" />
<vehicle id="type1_7" type="type1" route="ns" depart="1.9743300858257173" />
<vehicle id="type1_8" type="type1" route="ns" depart="2.040135730809583" />
<vehicle id="type1_9" type="type1" route="sn" depart="2.0875709249337904" />
<vehicle id="type1_10" type="type1" route="se" depart="2.864363420506283" />
<vehicle id="type1_11" type="type1" route="sn" depart="2.8929192001024195" />
<vehicle id="type1_12" type="type1" route="we" depart="3.0904280689815584" />
<vehicle id="type1_13" type="type1" route="sn" depart="3.112857033328043" />
<vehicle id="type1_14" type="type1" route="es" depart="3.198053642717032" />
<vehicle id="type1_15" type="type1" route="nw" depart="3.199754028430793" />
<vehicle id="type1_16" type="type1" route="en" depart="3.2356169376956556" />
<vehicle id="type1_17" type="type1" route="wn" depart="3.5953383794826252" />
<vehicle id="type1_18" type="type1" route="es" depart="3.8671377803082256" />
<vehicle id="type1_19" type="type1" route="sw" depart="3.99082469756843" />
<vehicle id="type1_20" type="type1" route="wn" depart="4.3737626539570815" />
<vehicle id="type1_21" type="type1" route="sw" depart="4.419706532972342" />
<vehicle id="type1_22" type="type1" route="we" depart="4.487037605319496" />
<vehicle id="type1_23" type="type1" route="sn" depart="4.661780991506839" />
<vehicle id="type1_24" type="type1" route="en" depart="4.8000378397969" />
<vehicle id="type1_25" type="type1" route="wn" depart="4.809431938211003" />
<vehicle id="type1_26" type="type1" route="ne" depart="4.913487978095696" />
<vehicle id="type1_27" type="type1" route="ne" depart="5.072126699334343" />
<vehicle id="type1_28" type="type1" route="se" depart="5.077696500934277" />
<vehicle id="type1_29" type="type1" route="es" depart="5.1306314578639896" />
<vehicle id="type1_30" type="type1" route="en" depart="5.789220473155021" />
<vehicle id="type1_31" type="type1" route="sn" depart="5.893749703899079" />
<vehicle id="type1_32" type="type1" route="sw" depart="6.232334477954124" />
<vehicle id="type1_33" type="type1" route="ne" depart="6.289137497547523" />
<vehicle id="type1_34" type="type1" route="sn" depart="6.633533577223282" />
<vehicle id="type1_35" type="type1" route="ew" depart="6.8405816474196826" />
<vehicle id="type1_36" type="type1" route="we" depart="6.942577119444568" />
<vehicle id="type1_37" type="type1" route="es" depart="7.161500006920137" />
<vehicle id="type1_38" type="type1" route="es" depart="7.2442305572053325" />
<vehicle id="type1_39" type="type1" route="we" depart="7.514359337212719" />
<vehicle id="type1_40" type="type1" route="en" depart="7.5166061744461965" />
<vehicle id="type1_41" type="type1" route="ws" depart="7.571521794226765" />
<vehicle id="type1_42" type="type1" route="sn" depart="7.832279148244716" />
<vehicle id="type1_43" type="type1" route="es" depart="7.950999499119109" />
<vehicle id="type1_44" type="type1" route="sw" depart="8.040295733775885" />
<vehicle id="type1_45" type="type1" route="ws" depart="8.13701056667964" />
<vehicle id="type1_46" type="type1" route="es" depart="8.260568447039326" />
<vehicle id="type1_47" type="type1" route="ns" depart="8.370395395601182" />
<vehicle id="type1_48" type="type1" route="ws" depart="8.446554922548561" />
<vehicle id="type1_49" type="type1" route="sn" depart="8.504336591086135" />
<vehicle id="type1_50" type="type1" route="sn" depart="8.556016295413995" />
<vehicle id="type1_51" type="type1" route="nw" depart="8.794910788584243" />
<vehicle id="type1_52" type="type1" route="sw" depart="8.847071257431715" />
<vehicle id="type1_53" type="type1" route="es" depart="8.952612761033699" />
<vehicle id="type1_54" type="type1" route="ws" depart="9.025967022474063" />
<vehicle id="type1_55" type="type1" route="ws" depart="9.376244321137502" />
<vehicle id="type1_56" type="type1" route="ws" depart="9.378488314034367" />
<vehicle id="type1_57" type="type1" route="sn" depart="10.04007196388191" />
<vehicle id="type1_58" type="type1" route="ns" depart="10.225039174021129" />
<vehicle id="type1_59" type="type1" route="en" depart="10.392520936772367" />
<vehicle id="type1_60" type="type1" route="wn" depart="10.59185041889692" />
<vehicle id="type1_61" type="type1" route="sn" depart="10.622489447820332" />
<vehicle id="type1_62" type="type1" route="ne" depart="11.019461289937507" />
<vehicle id="type1_63" type="type1" route="es" depart="11.238672234875539" />
<vehicle id="type1_64" type="type1" route="ws" depart="11.388821115813814" />
<vehicle id="type1_65" type="type1" route="wn" depart="11.45572234551678" />
<vehicle id="type1_66" type="type1" route="ws" depart="11.504920308671135" />
<vehicle id="type1_67" type="type1" route="we" depart="11.788397725948988" />
<vehicle id="type1_68" type="type1" route="sn" depart="12.26561041713172" />
<vehicle id="type1_69" type="type1" route="ws" depart="12.615462652344819" />
<vehicle id="type1_70" type="type1" route="we" depart="12.631716071421122" />
<vehicle id="type1_71" type="type1" route="en" depart="12.66923281378047" />
<vehicle id="type1_72" type="type1" route="en" depart="12.749355896158407" />
<vehicle id="type1_73" type="type1" route="ws" depart="12.962785706181183" />
<vehicle id="type1_74" type="type1" route="ew" depart="12.976010890764838" />
<vehicle id="type1_75" type="type1" route="ws" depart="13.532987914969219" />
<vehicle id="type1_76" type="type1" route="en" depart="13.803463702607662" />
<vehicle id="type1_77" type="type1" route="we" depart="14.451346325757749" />
<vehicle id="type1_78" type="type1" route="ne" depart="14.476374903766365" />
<vehicle id="type1_79" type="type1" route="sw" depart="14.48417225840773" />
<vehicle id="type1_80" type="type1" route="nw" depart="14.978309989383213" />
<vehicle id="type1_81" type="type1" route="ws" depart="15.313566493784256" />
<vehicle id="type1_82" type="type1" route="we" depart="15.558152808726536" />
<vehicle id="type1_83" type="type1" route="wn" depart="15.668733454577769" />
<vehicle id="type1_84" type="type1" route="en" depart="15.693543522197308" />
<vehicle id="type1_85" type="type1" route="ws" depart="15.985514002673504" />
<vehicle id="type1_86" type="type1" route="wn" depart="16.58446358771685" />
<vehicle id="type1_87" type="type1" route="ew" depart="16.587776507663737" />
<vehicle id="type1_88" type="type1" route="sn" depart="16.82245402816525" />
<vehicle id="type1_89" type="type1" route="wn" depart="17.058049171043304" />
<vehicle id="type1_90" type="type1" route="we" depart="17.352114939863508" />
<vehicle id="type1_91" type="type1" route="sn" depart="17.62511113200659" />
<vehicle id="type1_92" type="type1" route="se" depart="18.523636727923382" />
<vehicle id="type1_93" type="type1" route="ns" depart="18.747939065461278" />
<vehicle id="type1_94" type="type1" route="sw" depart="18.806897122228488" />
<vehicle id="type1_95" type="type1" route="en" depart="18.968949630700926" />
<vehicle id="type1_96" type="type1" route="ws" depart="19.20388303378394" />
<vehicle id="type1_97" type="type1" route="en" depart="19.345157974672475" />
<vehicle id="type1_98" type="type1" route="ws" depart="19.729919642898807" />
<vehicle id="type1_99" type="type1" route="es" depart="19.9186239571103" />
<vehicle id="type1_100" type="type1" route="nw" depart="20.46625695012307" />
<vehicle id="type1_101" type="type1" route="wn" depart="20.530959068094425" />
<vehicle id="type1_102" type="type1" route="nw" depart="21.389190390721954" />
<vehicle id="type1_103" type="type1" route="ne" depart="21.727495849933128" />
<vehicle id="type1_104" type="type1" route="sn" depart="22.514757205206692" />
<vehicle id="type1_105" type="type1" route="se" depart="22.68148851523354" />
<vehicle id="type1_106" type="type1" route="wn" depart="22.70616467235126" />
<vehicle id="type1_107" type="type1" route="wn" depart="22.892248974335423" />
<vehicle id="type1_108" type="type1" route="en" depart="23.402825619145467" />
<vehicle id="type1_109" type="type1" route="ns" depart="23.61668841346135" />
<vehicle id="type1_110" type="type1" route="ew" depart="23.721400353099398" />
<vehicle id="type1_111" type="type1" route="es" depart="23.78121932573403" />
<vehicle id="type1_112" type="type1" route="we" depart="24.05166941464085" />
<vehicle id="type1_113" type="type1" route="ne" depart="24.455725160968488" />
<vehicle id="type1_114" type="type1" route="ws" depart="24.576450629347814" />
<vehicle id="type1_115" type="type1" route="ne" depart="24.661596353525216" />
<vehicle id="type1_116" type="type1" route="ne" depart="24.928233575328267" />
<vehicle id="type1_117" type="type1" route="sw" depart="25.66385516037721" />
<vehicle id="type1_118" type="type1" route="sw" depart="25.752176525564703" />
<vehicle id="type1_119" type="type1" route="wn" depart="25.88523647779957" />
<vehicle id="type1_120" type="type1" route="ew" depart="26.207052718852857" />
<vehicle id="type1_121" type="type1" route="nw" depart="26.221727380569945" />
<vehicle id="type1_122" type="type1" route="ew" depart="26.34167238258611" />
<vehicle id="type1_123" type="type1" route="es" depart="26.365613108794" />
<vehicle id="type1_124" type="type1" route="es" depart="26.804884109291326" />
<vehicle id="type1_125" type="type1" route="ws" depart="27.07572927156467" />
<vehicle id="type1_126" type="type1" route="ns" depart="27.22463856440534" />
<vehicle id="type1_127" type="type1" route="we" depart="27.24713668827304" />
<vehicle id="type1_128" type="type1" route="sn" depart="27.450643881620913" />
<vehicle id="type1_129" type="type1" route="nw" depart="27.841413205417297" />
<vehicle id="type1_130" type="type1" route="nw" depart="27.9633815748564" />
<vehicle id="type1_131" type="type1" route="wn" depart="28.04267007481553" />
<vehicle id="type1_132" type="type1" route="ne" depart="28.511202120532257" />
<vehicle id="type1_133" type="type1" route="ew" depart="28.517294198933335" />
<vehicle id="type1_134" type="type1" route="es" depart="28.547963280638136" />
<vehicle id="type1_135" type="type1" route="en" depart="28.95505941893184" />
<vehicle id="type1_136" type="type1" route="we" depart="29.026263994441788" />
<vehicle id="type1_137" type="type1" route="ne" depart="29.13675662537526" />
<vehicle id="type1_138" type="type1" route="nw" depart="29.423485229030156" />
<vehicle id="type1_139" type="type1" route="sw" depart="29.506272674060845" />
<vehicle id="type1_140" type="type1" route="wn" depart="29.979208522480658" />
<vehicle id="type1_141" type="type1" route="sn" depart="30.049262883727867" />
<vehicle id="type1_142" type="type1" route="es" depart="30.108264740155377" />
<vehicle id="type1_143" type="type1" route="es" depart="30.111253024019486" />
<vehicle id="type1_144" type="type1" route="we" depart="30.208444977971396" />
<vehicle id="type1_145" type="type1" route="ew" depart="30.431314086588863" />
<vehicle id="type1_146" type="type1" route="we" depart="30.572392040185857" />
<vehicle id="type1_147" type="type1" route="wn" depart="30.720049378841793" />
<vehicle id="type1_148" type="type1" route="sw" depart="31.755754667709102" />
<vehicle id="type1_149" type="type1" route="wn" depart="32.13867715378936" />
<vehicle id="type1_150" type="type1" route="sw" depart="32.45404969118926" />
<vehicle id="type1_151" type="type1" route="ne" depart="32.59110594989392" />
<vehicle id="type1_152" type="type1" route="se" depart="32.734999437803495" />
<vehicle id="type1_153" type="type1" route="ew" depart="32.867075365821805" />
<vehicle id="type1_154" type="type1" route="ws" depart="33.058260126251035" />
<vehicle id="type1_155" type="type1" route="ew" depart="33.100770428056755" />
<vehicle id="type1_156" type="type1" route="es" depart="33.142569137935844" />
<vehicle id="type1_157" type="type1" route="sw" depart="33.51649946113139" />
<vehicle id="type1_158" type="type1" route="ne" depart="33.58819054251177" />
<vehicle id="type1_159" type="type1" route="wn" depart="33.682269064566086" />
<vehicle id="type1_160" type="type1" route="sn" depart="33.85666363023328" />
<vehicle id="type1_161" type="type1" route="en" depart="33.96369860810503" />
<vehicle id="type1_162" type="type1" route="ew" depart="33.98369309151068" />
<vehicle id="type1_163" type="type1" route="ns" depart="33.99203713699129" />
<vehicle id="type1_164" type="type1" route="ns" depart="34.14441060150723" />
<vehicle id="type1_165" type="type1" route="es" depart="34.19701363147312" />
<vehicle id="type1_166" type="type1" route="nw" depart="34.211675491761724" />
<vehicle id="type1_167" type="type1" route="nw" depart="34.29324325089133" />
<vehicle id="type1_168" type="type1" route="ne" depart="34.31551132900325" />
<vehicle id="type1_169" type="type1" route="es" depart="34.50240128520803" />
<vehicle id="type1_170" type="type1" route="ew" depart="34.51549569036201" />
<vehicle id="type1_171" type="type1" route="wn" depart="35.52049082255006" />
<vehicle id="type1_172" type="type1" route="ns" depart="35.61832490458686" />
<vehicle id="type1_173" type="type1" route="ne" depart="35.87175316172389" />
<vehicle id="type1_174" type="type1" route="sn" depart="36.0948288153948" />
<vehicle id="type1_175" type="type1" route="ne" depart="36.166682373365724" />
<vehicle id="type1_176" type="type1" route="sn" depart="36.17237624997207" />
<vehicle id="type1_177" type="type1" route="ne" depart="36.44791708097401" />
<vehicle id="type1_178" type="type1" route="es" depart="36.76745202270717" />
<vehicle id="type1_179" type="type1" route="sw" depart="36.82364654288356" />
<vehicle id="type1_180" type="type1" route="nw" depart="37.01865324116013" />
<vehicle id="type1_181" type="type1" route="ws" depart="37.48187067857715" />
<vehicle id="type1_182" type="type1" route="es" depart="37.573975154395214" />
<vehicle id="type1_183" type="type1" route="es" depart="37.59586668737875" />
<vehicle id="type1_184" type="type1" route="nw" depart="37.79167540746177" />
<vehicle id="type1_185" type="type1" route="we" depart="38.266748293556724" />
<vehicle id="type1_186" type="type1" route="ne" depart="39.19693468147844" />
<vehicle id="type1_187" type="type1" route="se" depart="39.255288687186784" />
<vehicle id="type1_188" type="type1" route="we" depart="39.29141206403784" />
<vehicle id="type1_189" type="type1" route="ne" depart="39.36785426268427" />
<vehicle id="type1_190" type="type1" route="wn" depart="39.39792846354306" />
<vehicle id="type1_191" type="type1" route="ws" depart="39.870315660029895" />
<vehicle id="type1_192" type="type1" route="se" depart="40.295998050940696" />
<vehicle id="type1_193" type="type1" route="sw" depart="40.75069689865408" />
<vehicle id="type1_194" type="type1" route="sn" depart="40.96545491694276" />
<vehicle id="type1_195" type="type1" route="ew" depart="41.59961065469402" />
<vehicle id="type1_196" type="type1" route="ew" depart="41.72739402969699" />
<vehicle id="type1_197" type="type1" route="wn" depart="41.8229362869406" />
<vehicle id="type1_198" type="type1" route="wn" depart="42.08390018753078" />
<vehicle id="type1_199" type="type1" route="ne" depart="42.87604965266949" />
<vehicle id="type1_200" type="type1" route="ne" depart="43.028269424836886" />
<vehicle id="type1_201" type="type1" route="es" depart="43.200117478701166" />
<vehicle id="type1_202" type="type1" route="ns" depart="43.222369405523665" />
<vehicle id="type1_203" type="type1" route="ws" depart="43.32079191402966" />
<vehicle id="type1_204" type="type1" route="sn" depart="43.46008416816031" />
<vehicle id="type1_205" type="type1" route="ne" depart="43.737447301384414" />
<vehicle id="type1_206" type="type1" route="nw" depart="43.79302117467055" />
<vehicle id="type1_207" type="type1" route="wn" depart="43.82908330710555" />
<vehicle id="type1_208" type="type1" route="ws" depart="43.86027449183451" />
<vehicle id="type1_209" type="type1" route="ne" depart="44.019763614413314" />
<vehicle id="type1_210" type="type1" route="sw" depart="44.22424135034864" />
<vehicle id="type1_211" type="type1" route="sn" depart="44.259510464083355" />
<vehicle id="type1_212" type="type1" route="nw" depart="44.33930935260225" />
<vehicle id="type1_213" type="type1" route="es" depart="44.35416401568639" />
<vehicle id="type1_214" type="type1" route="nw" depart="44.88455365752061" />
<vehicle id="type1_215" type="type1" route="ws" depart="45.15922607166664" />
<vehicle id="type1_216" type="type1" route="ne" depart="45.45776637436211" />
<vehicle id="type1_217" type="type1" route="ne" depart="45.51801125141113" />
<vehicle id="type1_218" type="type1" route="ns" depart="45.624300468652464" />
<vehicle id="type1_219" type="type1" route="se" depart="45.641742386923056" />
<vehicle id="type1_220" type="type1" route="we" depart="46.31152180019192" />
<vehicle id="type1_221" type="type1" route="we" depart="46.484323568586845" />
<vehicle id="type1_222" type="type1" route="nw" depart="46.73099498264861" />
<vehicle id="type1_223" type="type1" route="en" depart="47.005710743243185" />
<vehicle id="type1_224" type="type1" route="ne" depart="47.16066159198987" />
<vehicle id="type1_225" type="type1" route="es" depart="47.32699882107107" />
<vehicle id="type1_226" type="type1" route="ne" depart="47.58008295700441" />
<vehicle id="type1_227" type="type1" route="ew" depart="47.83147540679662" />
<vehicle id="type1_228" type="type1" route="sw" depart="47.87759446462648" />
<vehicle id="type1_229" type="type1" route="wn" depart="47.92875157857555" />
<vehicle id="type1_230" type="type1" route="se" depart="48.04882006622321" />
<vehicle id="type1_231" type="type1" route="se" depart="48.060850426543375" />
<vehicle id="type1_232" type="type1" route="sw" depart="48.114537943266406" />
<vehicle id="type1_233" type="type1" route="en" depart="48.24789384133076" />
<vehicle id="type1_234" type="type1" route="se" depart="49.22634467890762" />
<vehicle id="type1_235" type="type1" route="ws" depart="49.40594789339532" />
<vehicle id="type1_236" type="type1" route="es" depart="49.84372168300566" />
<vehicle id="type1_237" type="type1" route="ne" depart="49.99149353372761" />
<vehicle id="type1_238" type="type1" route="wn" depart="50.246996675330195" />
<vehicle id="type1_239" type="type1" route="sn" depart="50.716985888080195" />
<vehicle id="type1_240" type="type1" route="nw" depart="51.27678370281118" />
<vehicle id="type1_241" type="type1" route="sn" depart="51.63604374423616" />
<vehicle id="type1_242" type="type1" route="ew" depart="52.33847289523476" />
<vehicle id="type1_243" type="type1" route="ne" depart="52.656992816794535" />
<vehicle id="type1_244" type="type1" route="ws" depart="52.78075696072148" />
<vehicle id="type1_245" type="type1" route="sw" depart="52.8930678064076" />
<vehicle id="type1_246" type="type1" route="ws" depart="53.38906718287697" />
<vehicle id="type1_247" type="type1" route="ew" depart="53.78710385983398" />
<vehicle id="type1_248" type="type1" route="wn" depart="53.94130577709534" />
<vehicle id="type1_249" type="type1" route="ne" depart="53.9915929466568" />
<vehicle id="type1_250" type="type1" route="ew" depart="54.169999335802316" />
<vehicle id="type1_251" type="type1" route="wn" depart="54.19562433781661" />
<vehicle id="type1_252" type="type1" route="we" depart="54.35931159866691" />
<vehicle id="type1_253" type="type1" route="we" depart="54.369848483709006" />
<vehicle id="type1_254" type="type1" route="we" depart="54.50526088401374" />
<vehicle id="type1_255" type="type1" route="se" depart="54.536374712464344" />
<vehicle id="type1_256" type="type1" route="sn" depart="54.752950620402004" />
<vehicle id="type1_257" type="type1" route="ws" depart="54.91186506980341" />
<vehicle id="type1_258" type="type1" route="we" depart="54.99417176302162" />
<vehicle id="type1_259" type="type1" route="en" depart="55.118228415897526" />
<vehicle id="type1_260" type="type1" route="ew" depart="55.21775341804929" />
<vehicle id="type1_261" type="type1" route="sw" depart="55.25545638615695" />
<vehicle id="type1_262" type="type1" route="es" depart="55.500920553566594" />
<vehicle id="type1_263" type="type1" route="ns" depart="55.75875865708934" />
<vehicle id="type1_264" type="type1" route="en" depart="56.07445148377156" />
<vehicle id="type1_265" type="type1" route="ew" depart="56.10005823815028" />
<vehicle id="type1_266" type="type1" route="es" depart="56.17661879244567" />
<vehicle id="type1_267" type="type1" route="we" depart="56.17747893323214" />
<vehicle id="type1_268" type="type1" route="ne" depart="56.56917930224737" />
<vehicle id="type1_269" type="type1" route="en" depart="56.7054654005256" />
<vehicle id="type1_270" type="type1" route="ws" depart="56.81766826657735" />
<vehicle id="type1_271" type="type1" route="ne" depart="56.845851816880646" />
<vehicle id="type1_272" type="type1" route="ew" depart="57.07157260983289" />
<vehicle id="type1_273" type="type1" route="we" depart="57.237180040969946" />
<vehicle id="type1_274" type="type1" route="we" depart="57.81071677547424" />
<vehicle id="type1_275" type="type1" route="we" depart="58.0688829791112" />
<vehicle id="type1_276" type="type1" route="we" depart="58.08842883171415" />
<vehicle id="type1_277" type="type1" route="se" depart="58.16657238503126" />
<vehicle id="type1_278" type="type1" route="ns" depart="58.60164782405476" />
<vehicle id="type1_279" type="type1" route="se" depart="58.68749552590074" />
<vehicle id="type1_280" type="type1" route="es" depart="58.735297418325814" />
<vehicle id="type1_281" type="type1" route="ne" depart="58.832351951271384" />
<vehicle id="type1_282" type="type1" route="en" depart="58.96965361013288" />
<vehicle id="type1_283" type="type1" route="wn" depart="59.26358695756188" />
<vehicle id="type1_284" type="type1" route="ns" depart="59.39469687949581" />
<vehicle id="type1_285" type="type1" route="se" depart="59.497504693819586" />
<vehicle id="type1_286" type="type1" route="ns" depart="59.97774934090578" />
<vehicle id="type1_287" type="type1" route="ns" depart="60.18401546605998" />
<vehicle id="type1_288" type="type1" route="en" depart="60.332826854503345" />
<vehicle id="type1_289" type="type1" route="nw" depart="60.39987643163587" />
<vehicle id="type1_290" type="type1" route="ew" depart="60.54620342182042" />
<vehicle id="type1_291" type="type1" route="en" depart="60.60053858396688" />
<vehicle id="type1_292" type="type1" route="se" depart="60.64619264239098" />
<vehicle id="type1_293" type="type1" route="es" depart="61.807792426195974" />
<vehicle id="type1_294" type="type1" route="ew" depart="62.14433236484464" />
<vehicle id="type1_295" type="type1" route="wn" depart="62.20207201559925" />
<vehicle id="type1_296" type="type1" route="es" depart="62.40422391750532" />
<vehicle id="type1_297" type="type1" route="wn" depart="62.542635242117136" />
<vehicle id="type1_298" type="type1" route="sw" depart="62.76669372600353" />
<vehicle id="type1_299" type="type1" route="en" depart="62.79716564410156" />
<vehicle id="type1_300" type="type1" route="ws" depart="62.9080212345427" />
</routes>