<routes>
            <vType id="type1" accel="0.8" decel="4.5" sigma="0.5" length="5" maxSpeed="70"/>
            <vType id="rescue" vClass="emergency" speedFactor="1.5" guiShape="emergency">
                <param key="has.bluelight.device" value="true"/>
            </vType>
            <route id="ne" edges="ni eo"/>
            <route id="ns" edges="ni so"/>
            <route id="nw" edges="ni wo"/>
            <route id="en" edges="ei no"/>
            <route id="es" edges="ei so"/>
            <route id="ew" edges="ei wo"/>
            <route id="sn" edges="si no"/>
            <route id="se" edges="si eo"/>
            <route id="sw" edges="si wo"/>
            <route id="wn" edges="wi no"/>
            <route id="we" edges="wi eo"/>
            <route id="ws" edges="wi so"/>
        
            <personFlow id="p_we" begin="0" end="400" period="50">
                <walk route="we"/>
            </personFlow>
                         
            <personFlow id="p_sn" begin="0" end="400" period="50">
                <walk route="sn"/>
            </personFlow>
                         
            <personFlow id="p_ns" begin="0" end="400" period="50">
                <walk route="ns"/>
            </personFlow>
                         
            <personFlow id="p_ew" begin="0" end="400" period="50">
                <walk route="ew"/>
            </personFlow>
                         <vehicle id="type1_1" type="type1" route="sn" depart="0.5987239600395767" />
<vehicle id="type1_2" type="type1" route="es" depart="1.0360304498412463" />
<vehicle id="type1_3" type="type1" route="we" depart="1.2621308927634418" />
<vehicle id="type1_4" type="type1" route="nw" depart="3.02822211807844" />
<vehicle id="type1_5" type="type1" route="en" depart="4.027074700967397" />
<vehicle id="type1_6" type="type1" route="ns" depart="5.015211526534932" />
<vehicle id="type1_7" type="type1" route="nw" depart="8.418376787927834" />
<vehicle id="type1_8" type="type1" route="sw" depart="15.550264802816889" />
<vehicle id="type1_9" type="type1" route="sw" depart="15.604895119528209" />
<vehicle id="type1_10" type="type1" route="wn" depart="16.18879233136077" />
<vehicle id="type1_11" type="type1" route="wn" depart="17.802670333347212" />
<vehicle id="type1_12" type="type1" route="sn" depart="18.3409276800901" />
<vehicle id="type1_13" type="type1" route="sn" depart="19.865776353314104" />
<vehicle id="type1_14" type="type1" route="se" depart="24.83288766595247" />
<vehicle id="type1_15" type="type1" route="en" depart="26.575895479040646" />
<vehicle id="type1_16" type="type1" route="en" depart="26.95192901198391" />
<vehicle id="type1_17" type="type1" route="ns" depart="31.10293823198479" />
<vehicle id="type1_18" type="type1" route="ws" depart="37.58680753358433" />
<vehicle id="type1_19" type="type1" route="en" depart="38.56669762746416" />
<vehicle id="type1_20" type="type1" route="ew" depart="49.254631519623445" />
<vehicle id="type1_21" type="type1" route="se" depart="50.77566158497255" />
<vehicle id="type1_22" type="type1" route="es" depart="51.06855031751525" />
<vehicle id="type1_23" type="type1" route="ws" depart="52.99864752238541" />
<vehicle id="type1_24" type="type1" route="ws" depart="55.15955338655268" />
<vehicle id="type1_25" type="type1" route="wn" depart="58.56891057992248" />
<vehicle id="type1_26" type="type1" route="sn" depart="60.54807355971266" />
<vehicle id="type1_27" type="type1" route="ne" depart="60.796640293126316" />
<vehicle id="type1_28" type="type1" route="ew" depart="65.23371265667868" />
<vehicle id="type1_29" type="type1" route="en" depart="68.53731957523598" />
<vehicle id="type1_30" type="type1" route="ns" depart="69.28356786541205" />
<vehicle id="type1_31" type="type1" route="sn" depart="69.45190823370078" />
<vehicle id="type1_32" type="type1" route="we" depart="71.53785101716542" />
<vehicle id="type1_33" type="type1" route="wn" depart="74.85166522279242" />
<vehicle id="type1_34" type="type1" route="ns" depart="77.37400869053447" />
<vehicle id="type1_35" type="type1" route="ns" depart="78.9055485685399" />
<vehicle id="type1_36" type="type1" route="es" depart="79.2882557501416" />
<vehicle id="type1_37" type="type1" route="sn" depart="80.5008366652844" />
<vehicle id="type1_38" type="type1" route="sn" depart="82.48562030552283" />
<vehicle id="type1_39" type="type1" route="we" depart="86.5747263904007" />
<vehicle id="type1_40" type="type1" route="wn" depart="87.78516789687954" />
<vehicle id="type1_41" type="type1" route="we" depart="90.34057238261948" />
<vehicle id="type1_42" type="type1" route="ns" depart="90.49948211828047" />
<vehicle id="type1_43" type="type1" route="nw" depart="94.40297928852692" />
<vehicle id="type1_44" type="type1" route="es" depart="100.12373908534899" />
<vehicle id="type1_45" type="type1" route="es" depart="103.17473681131418" />
<vehicle id="type1_46" type="type1" route="en" depart="103.30303528487539" />
<vehicle id="type1_47" type="type1" route="ne" depart="105.10184731829463" />
<vehicle id="type1_48" type="type1" route="ne" depart="110.54801138741549" />
<vehicle id="type1_49" type="type1" route="es" depart="115.9573623624575" />
<vehicle id="type1_50" type="type1" route="sn" depart="116.30112654545925" />
<vehicle id="type1_51" type="type1" route="se" depart="117.67841589682052" />
<vehicle id="type1_52" type="type1" route="es" depart="120.61662432246402" />
<vehicle id="type1_53" type="type1" route="nw" depart="125.17208738865733" />
<vehicle id="type1_54" type="type1" route="en" depart="127.30468096502554" />
<vehicle id="type1_55" type="type1" route="se" depart="129.36337744989515" />
<vehicle id="type1_56" type="type1" route="se" depart="133.08003142860483" />
<vehicle id="type1_57" type="type1" route="sn" depart="135.38678877375835" />
<vehicle id="type1_58" type="type1" route="nw" depart="135.81006143249007" />
<vehicle id="type1_59" type="type1" route="we" depart="136.61420189471082" />
<vehicle id="type1_60" type="type1" route="sw" depart="137.82655327633233" />
<vehicle id="type1_61" type="type1" route="sw" depart="139.83090858581505" />
<vehicle id="type1_62" type="type1" route="sw" depart="141.52531871678423" />
<vehicle id="type1_63" type="type1" route="nw" depart="145.23315910426896" />
<vehicle id="type1_64" type="type1" route="sn" depart="145.82548435223177" />
<vehicle id="type1_65" type="type1" route="ne" depart="149.7644104508142" />
<vehicle id="type1_66" type="type1" route="ew" depart="150.54337073106845" />
<vehicle id="type1_67" type="type1" route="sn" depart="151.08271133262645" />
<vehicle id="type1_68" type="type1" route="en" depart="153.57121858568433" />
<vehicle id="type1_69" type="type1" route="sn" depart="154.8066213712156" />
<vehicle id="type1_70" type="type1" route="nw" depart="155.83022933486774" />
<vehicle id="type1_71" type="type1" route="ew" depart="156.17768492679144" />
<vehicle id="type1_72" type="type1" route="ws" depart="156.7430172923014" />
<vehicle id="type1_73" type="type1" route="ws" depart="161.8630259585191" />
<vehicle id="type1_74" type="type1" route="en" depart="165.37161960073686" />
<vehicle id="type1_75" type="type1" route="sn" depart="170.62049909920998" />
<vehicle id="type1_76" type="type1" route="wn" depart="171.36272167122064" />
<vehicle id="type1_77" type="type1" route="wn" depart="173.19719470461126" />
<vehicle id="type1_78" type="type1" route="wn" depart="174.27114617741827" />
<vehicle id="type1_79" type="type1" route="ns" depart="175.57092491136356" />
<vehicle id="type1_80" type="type1" route="we" depart="179.7009311080129" />
<vehicle id="type1_81" type="type1" route="ws" depart="179.8986881253603" />
<vehicle id="type1_82" type="type1" route="es" depart="182.09578443319558" />
<vehicle id="type1_83" type="type1" route="es" depart="184.22798419272578" />
<vehicle id="type1_84" type="type1" route="ws" depart="190.37976029422097" />
<vehicle id="type1_85" type="type1" route="nw" depart="191.24085156285912" />
<vehicle id="type1_86" type="type1" route="ns" depart="193.4700435907228" />
<vehicle id="type1_87" type="type1" route="se" depart="196.45550635655675" />
<vehicle id="type1_88" type="type1" route="se" depart="196.93133916399216" />
<vehicle id="type1_89" type="type1" route="ws" depart="199.46551661127796" />
<vehicle id="type1_90" type="type1" route="se" depart="202.9197018593778" />
<vehicle id="type1_91" type="type1" route="we" depart="206.3585287312899" />
<vehicle id="type1_92" type="type1" route="ew" depart="210.78524081152466" />
<vehicle id="type1_93" type="type1" route="sw" depart="212.10311786100718" />
<vehicle id="type1_94" type="type1" route="en" depart="218.14499294844094" />
<vehicle id="type1_95" type="type1" route="se" depart="220.19486481954726" />
<vehicle id="type1_96" type="type1" route="sn" depart="222.7475509694643" />
<vehicle id="type1_97" type="type1" route="sn" depart="227.62198068347905" />
<vehicle id="type1_98" type="type1" route="we" depart="228.81292023020146" />
<vehicle id="type1_99" type="type1" route="ws" depart="241.46928036423077" />
<vehicle id="type1_100" type="type1" route="ne" depart="242.16177620091753" />
<vehicle id="type1_101" type="type1" route="we" depart="242.53386427344904" />
<vehicle id="type1_102" type="type1" route="en" depart="242.96875650137028" />
<vehicle id="type1_103" type="type1" route="wn" depart="243.65446538764036" />
<vehicle id="type1_104" type="type1" route="we" depart="247.47107153090263" />
<vehicle id="type1_105" type="type1" route="en" depart="249.69489937894906" />
<vehicle id="type1_106" type="type1" route="sn" depart="257.91530127945714" />
<vehicle id="type1_107" type="type1" route="ws" depart="260.63310225832197" />
<vehicle id="type1_108" type="type1" route="es" depart="265.7910424662718" />
<vehicle id="type1_109" type="type1" route="es" depart="272.582474509992" />
<vehicle id="type1_110" type="type1" route="en" depart="281.75163325025505" />
<vehicle id="type1_111" type="type1" route="sn" depart="284.94505146179256" />
<vehicle id="type1_112" type="type1" route="we" depart="286.32506247597956" />
<vehicle id="type1_113" type="type1" route="wn" depart="289.4379217976792" />
<vehicle id="type1_114" type="type1" route="se" depart="294.3838726023515" />
<vehicle id="type1_115" type="type1" route="en" depart="295.614178542359" />
<vehicle id="type1_116" type="type1" route="ws" depart="297.03192961629867" />
<vehicle id="type1_117" type="type1" route="se" depart="299.9422294149155" />
<vehicle id="type1_118" type="type1" route="ws" depart="300.58600654522127" />
<vehicle id="type1_119" type="type1" route="nw" depart="301.6190449816789" />
<vehicle id="type1_120" type="type1" route="es" depart="301.95196525330977" />
<vehicle id="type1_121" type="type1" route="ns" depart="304.8602343797343" />
<vehicle id="type1_122" type="type1" route="sn" depart="305.2470253219931" />
<vehicle id="type1_123" type="type1" route="sn" depart="306.9525792014963" />
<vehicle id="type1_124" type="type1" route="ns" depart="308.208948288153" />
<vehicle id="type1_125" type="type1" route="ne" depart="308.9240996676879" />
<vehicle id="type1_126" type="type1" route="ne" depart="317.07106263779053" />
<vehicle id="type1_127" type="type1" route="ew" depart="321.99223417557545" />
<vehicle id="type1_128" type="type1" route="ns" depart="325.73537079659366" />
<vehicle id="type1_129" type="type1" route="ew" depart="327.62037006288074" />
<vehicle id="type1_130" type="type1" route="sw" depart="330.869300720729" />
<vehicle id="type1_131" type="type1" route="en" depart="331.68474778167985" />
<vehicle id="type1_132" type="type1" route="en" depart="333.5548883152495" />
<vehicle id="type1_133" type="type1" route="ne" depart="335.4274762316374" />
<vehicle id="type1_134" type="type1" route="ns" depart="335.881121514345" />
<vehicle id="type1_135" type="type1" route="we" depart="337.4366584083022" />
<vehicle id="type1_136" type="type1" route="ew" depart="340.48384089253034" />
<vehicle id="type1_137" type="type1" route="sn" depart="341.22563794838646" />
<vehicle id="type1_138" type="type1" route="ew" depart="341.7389724235062" />
<vehicle id="type1_139" type="type1" route="es" depart="349.72907079636343" />
<vehicle id="type1_140" type="type1" route="es" depart="353.4430017532753" />
<vehicle id="type1_141" type="type1" route="we" depart="354.82683033120736" />
<vehicle id="type1_142" type="type1" route="wn" depart="359.013681246983" />
<vehicle id="type1_143" type="type1" route="sw" depart="360.6279814594323" />
<vehicle id="type1_144" type="type1" route="we" depart="360.8301343515456" />
<vehicle id="type1_145" type="type1" route="en" depart="366.4079709599251" />
<vehicle id="type1_146" type="type1" route="ws" depart="371.0609389402234" />
<vehicle id="type1_147" type="type1" route="we" depart="373.48755963508927" />
<vehicle id="type1_148" type="type1" route="ns" depart="375.01340962478474" />
<vehicle id="type1_149" type="type1" route="en" depart="376.39200839208513" />
<vehicle id="type1_150" type="type1" route="ew" depart="382.76090251579797" />
<vehicle id="type1_151" type="type1" route="nw" depart="388.21907129439694" />
<vehicle id="type1_152" type="type1" route="nw" depart="390.34344570045766" />
<vehicle id="type1_153" type="type1" route="se" depart="391.1711150343667" />
<vehicle id="type1_154" type="type1" route="es" depart="397.8204325077264" />
<vehicle id="type1_155" type="type1" route="en" depart="398.95297373016143" />
<vehicle id="type1_156" type="type1" route="se" depart="400.8007596067771" />
<vehicle id="type1_157" type="type1" route="sw" depart="401.5057191587681" />
<vehicle id="type1_158" type="type1" route="ew" depart="403.9778350484375" />
<vehicle id="type1_159" type="type1" route="sw" depart="404.3156385002327" />
<vehicle id="type1_160" type="type1" route="wn" depart="404.4462304319023" />
<vehicle id="type1_161" type="type1" route="nw" depart="406.8016955135837" />
<vehicle id="emv_1" type="rescue" route="nw" depart="407.41383523606925" />
<vehicle id="type1_162" type="type1" route="we" depart="407.5076738328449" />
<vehicle id="type1_163" type="type1" route="we" depart="408.00212306811113" />
<vehicle id="type1_164" type="type1" route="ns" depart="410.6313707465111" />
<vehicle id="type1_165" type="type1" route="sw" depart="416.02117829656805" />
<vehicle id="type1_166" type="type1" route="wn" depart="422.4715653706981" />
<vehicle id="type1_167" type="type1" route="ew" depart="422.7414763238358" />
<vehicle id="type1_168" type="type1" route="ns" depart="425.67369526820306" />
<vehicle id="type1_169" type="type1" route="ne" depart="426.38891747189257" />
<vehicle id="type1_170" type="type1" route="ew" depart="426.6835327564928" />
<vehicle id="type1_171" type="type1" route="ew" depart="428.01249554652077" />
<vehicle id="type1_172" type="type1" route="ws" depart="428.78779956940787" />
<vehicle id="type1_173" type="type1" route="ne" depart="429.59255050236266" />
<vehicle id="type1_174" type="type1" route="ws" depart="430.7164963046212" />
<vehicle id="type1_175" type="type1" route="ew" depart="431.1403623216792" />
<vehicle id="type1_176" type="type1" route="we" depart="431.79170896776145" />
<vehicle id="type1_177" type="type1" route="sw" depart="433.85934012633095" />
<vehicle id="type1_178" type="type1" route="sw" depart="437.0586936604728" />
<vehicle id="type1_179" type="type1" route="en" depart="437.4980115537608" />
<vehicle id="type1_180" type="type1" route="wn" depart="438.6083607474467" />
<vehicle id="type1_181" type="type1" route="nw" depart="448.44857978532923" />
<vehicle id="type1_182" type="type1" route="es" depart="452.2204291887086" />
<vehicle id="type1_183" type="type1" route="es" depart="454.8357746692817" />
<vehicle id="type1_184" type="type1" route="en" depart="456.694617572164" />
<vehicle id="type1_185" type="type1" route="nw" depart="458.18854820585267" />
<vehicle id="type1_186" type="type1" route="wn" depart="461.7811958851983" />
<vehicle id="type1_187" type="type1" route="en" depart="464.79684199984763" />
<vehicle id="type1_188" type="type1" route="we" depart="468.44587889579725" />
<vehicle id="type1_189" type="type1" route="nw" depart="470.0580322668745" />
<vehicle id="type1_190" type="type1" route="wn" depart="472.4091590539483" />
<vehicle id="type1_191" type="type1" route="sn" depart="474.08378182074455" />
<vehicle id="type1_192" type="type1" route="sn" depart="480.5056078089215" />
<vehicle id="type1_193" type="type1" route="es" depart="481.9313202638171" />
<vehicle id="type1_194" type="type1" route="es" depart="483.30153800907414" />
<vehicle id="type1_195" type="type1" route="es" depart="488.0481483725447" />
<vehicle id="type1_196" type="type1" route="sw" depart="488.47182876535084" />
<vehicle id="type1_197" type="type1" route="ne" depart="490.8199416949569" />
<vehicle id="type1_198" type="type1" route="sw" depart="492.41154534171284" />
<vehicle id="type1_199" type="type1" route="we" depart="494.36888476432637" />
<vehicle id="type1_200" type="type1" route="ew" depart="495.69246777454555" />
<vehicle id="type1_201" type="type1" route="se" depart="496.82757658665287" />
<vehicle id="type1_202" type="type1" route="wn" depart="499.17597564096764" />
<vehicle id="type1_203" type="type1" route="nw" depart="499.2256629396459" />
<vehicle id="type1_204" type="type1" route="ne" depart="499.5651908315064" />
<vehicle id="type1_205" type="type1" route="ws" depart="502.02718130676357" />
<vehicle id="type1_206" type="type1" route="ew" depart="504.46744197831305" />
<vehicle id="type1_207" type="type1" route="se" depart="505.55438085119005" />
<vehicle id="type1_208" type="type1" route="nw" depart="506.1923126126137" />
<vehicle id="type1_209" type="type1" route="ns" depart="507.1299481051218" />
<vehicle id="type1_210" type="type1" route="ew" depart="512.0654062618805" />
<vehicle id="type1_211" type="type1" route="we" depart="515.8301459057593" />
<vehicle id="type1_212" type="type1" route="ne" depart="519.4523649583206" />
<vehicle id="type1_213" type="type1" route="ws" depart="520.7223657822702" />
<vehicle id="type1_214" type="type1" route="se" depart="522.8652112276859" />
<vehicle id="type1_215" type="type1" route="ne" depart="525.907124761954" />
<vehicle id="type1_216" type="type1" route="ns" depart="530.7772967857595" />
<vehicle id="type1_217" type="type1" route="en" depart="537.2930172474203" />
<vehicle id="type1_218" type="type1" route="nw" depart="542.8207999580386" />
<vehicle id="type1_219" type="type1" route="sn" depart="547.3351576272162" />
<vehicle id="type1_220" type="type1" route="ew" depart="549.7918730827645" />
<vehicle id="type1_221" type="type1" route="ws" depart="553.1949098273185" />
<vehicle id="type1_222" type="type1" route="nw" depart="558.0402313512084" />
<vehicle id="type1_223" type="type1" route="nw" depart="562.070335472856" />
<vehicle id="type1_224" type="type1" route="ne" depart="563.2051805444223" />
<vehicle id="type1_225" type="type1" route="en" depart="569.8038070514151" />
<vehicle id="type1_226" type="type1" route="we" depart="577.8414548972204" />
<vehicle id="type1_227" type="type1" route="en" depart="577.9015053747855" />
<vehicle id="type1_228" type="type1" route="es" depart="579.440582190524" />
<vehicle id="type1_229" type="type1" route="nw" depart="580.4828083808926" />
<vehicle id="type1_230" type="type1" route="sw" depart="583.6285458135399" />
<vehicle id="type1_231" type="type1" route="wn" depart="583.8769873555997" />
<vehicle id="type1_232" type="type1" route="nw" depart="585.1964963629375" />
<vehicle id="emv_2" type="rescue" route="se" depart="589.6287564224408" />
<vehicle id="type1_233" type="type1" route="se" depart="590.0290620504094" />
<vehicle id="type1_234" type="type1" route="we" depart="592.5483190264824" />
<vehicle id="type1_235" type="type1" route="we" depart="602.1879203098955" />
<vehicle id="type1_236" type="type1" route="en" depart="606.1577866983594" />
<vehicle id="type1_237" type="type1" route="en" depart="613.0637082380011" />
<vehicle id="type1_238" type="type1" route="ew" depart="613.2210465820691" />
<vehicle id="type1_239" type="type1" route="ew" depart="613.4177406649687" />
<vehicle id="type1_240" type="type1" route="we" depart="613.653242893143" />
<vehicle id="type1_241" type="type1" route="es" depart="614.6555371786399" />
<vehicle id="type1_242" type="type1" route="we" depart="614.9798006370361" />
<vehicle id="type1_243" type="type1" route="sw" depart="617.5326190083907" />
<vehicle id="type1_244" type="type1" route="nw" depart="617.8872325382798" />
<vehicle id="type1_245" type="type1" route="ns" depart="619.0665658275541" />
<vehicle id="type1_246" type="type1" route="en" depart="620.2476105964973" />
<vehicle id="type1_247" type="type1" route="ew" depart="622.0490978361775" />
<vehicle id="type1_248" type="type1" route="es" depart="622.2932248605803" />
<vehicle id="type1_249" type="type1" route="sw" depart="624.9639492937855" />
<vehicle id="type1_250" type="type1" route="ws" depart="626.7896454343531" />
<vehicle id="type1_251" type="type1" route="sw" depart="627.8954641567633" />
<vehicle id="type1_252" type="type1" route="sn" depart="630.2415889927797" />
<vehicle id="type1_253" type="type1" route="nw" depart="631.5878960169726" />
<vehicle id="type1_254" type="type1" route="sw" depart="635.5300584045739" />
<vehicle id="type1_255" type="type1" route="wn" depart="639.0818715598677" />
<vehicle id="type1_256" type="type1" route="ws" depart="643.1796321184333" />
<vehicle id="type1_257" type="type1" route="es" depart="648.2908712395405" />
<vehicle id="type1_258" type="type1" route="sw" depart="650.2852381724005" />
<vehicle id="type1_259" type="type1" route="ne" depart="658.5641520986915" />
<vehicle id="type1_260" type="type1" route="ne" depart="659.0016346544875" />
<vehicle id="type1_261" type="type1" route="ew" depart="660.0578524842808" />
<vehicle id="type1_262" type="type1" route="ne" depart="664.9717886124837" />
<vehicle id="type1_263" type="type1" route="ew" depart="667.695744635529" />
<vehicle id="type1_264" type="type1" route="we" depart="668.0864944541978" />
<vehicle id="type1_265" type="type1" route="sw" depart="671.6695740157434" />
<vehicle id="type1_266" type="type1" route="ew" depart="672.2313987982849" />
<vehicle id="type1_267" type="type1" route="ne" depart="675.3733011469483" />
<vehicle id="emv_3" type="rescue" route="we" depart="675.8922645781187" />
<vehicle id="type1_268" type="type1" route="ew" depart="680.6862205378844" />
<vehicle id="type1_269" type="type1" route="ne" depart="680.781337087977" />
<vehicle id="type1_270" type="type1" route="wn" depart="693.3830574827972" />
<vehicle id="type1_271" type="type1" route="nw" depart="697.6912201062538" />
<vehicle id="type1_272" type="type1" route="ew" depart="702.8596882400732" />
<vehicle id="type1_273" type="type1" route="es" depart="703.9267549069589" />
<vehicle id="type1_274" type="type1" route="sw" depart="705.4807323805618" />
<vehicle id="type1_275" type="type1" route="se" depart="707.456155212612" />
<vehicle id="type1_276" type="type1" route="nw" depart="708.9304295415303" />
<vehicle id="type1_277" type="type1" route="ne" depart="713.0727168494734" />
<vehicle id="type1_278" type="type1" route="ws" depart="713.1877150831317" />
<vehicle id="type1_279" type="type1" route="ns" depart="718.15595279407" />
<vehicle id="type1_280" type="type1" route="ns" depart="721.2213837460571" />
<vehicle id="type1_281" type="type1" route="se" depart="721.3066442571104" />
<vehicle id="type1_282" type="type1" route="we" depart="722.3948343740274" />
<vehicle id="emv_4" type="rescue" route="es" depart="730.1459363739336" />
<vehicle id="type1_283" type="type1" route="wn" depart="730.3627676001853" />
<vehicle id="type1_284" type="type1" route="en" depart="731.7127041781384" />
<vehicle id="type1_285" type="type1" route="wn" depart="735.7114522565713" />
<vehicle id="type1_286" type="type1" route="nw" depart="737.3249840503598" />
<vehicle id="type1_287" type="type1" route="se" depart="737.6927667966751" />
<vehicle id="type1_288" type="type1" route="en" depart="742.1495709208514" />
<vehicle id="type1_289" type="type1" route="ew" depart="742.2010535219993" />
<vehicle id="type1_290" type="type1" route="es" depart="743.8576172008255" />
<vehicle id="type1_291" type="type1" route="ns" depart="746.0098175122667" />
<vehicle id="type1_292" type="type1" route="se" depart="748.580480043033" />
<vehicle id="type1_293" type="type1" route="wn" depart="750.2064708992226" />
<vehicle id="type1_294" type="type1" route="ew" depart="752.8802680515182" />
<vehicle id="type1_295" type="type1" route="en" depart="760.457880050285" />
<vehicle id="type1_296" type="type1" route="sw" depart="761.0062275888225" />
<vehicle id="type1_297" type="type1" route="wn" depart="761.6285218999772" />
<vehicle id="type1_298" type="type1" route="we" depart="762.0579810782982" />
<vehicle id="type1_299" type="type1" route="ne" depart="762.5180009604275" />
<vehicle id="type1_300" type="type1" route="wn" depart="763.0316739296535" />
<vehicle id="type1_301" type="type1" route="ne" depart="772.1212327743026" />
<vehicle id="type1_302" type="type1" route="wn" depart="773.217817354965" />
<vehicle id="type1_303" type="type1" route="es" depart="773.9673703802649" />
<vehicle id="type1_304" type="type1" route="ew" depart="775.8290257943584" />
<vehicle id="type1_305" type="type1" route="ne" depart="776.3112032786066" />
<vehicle id="type1_306" type="type1" route="ne" depart="778.0636514997218" />
<vehicle id="type1_307" type="type1" route="se" depart="780.066017098232" />
<vehicle id="type1_308" type="type1" route="es" depart="782.948672550388" />
<vehicle id="type1_309" type="type1" route="nw" depart="784.1548536405885" />
<vehicle id="type1_310" type="type1" route="ws" depart="791.5443544420007" />
<vehicle id="type1_311" type="type1" route="ws" depart="791.5770167964527" />
<vehicle id="type1_312" type="type1" route="ws" depart="791.9971102762784" />
<vehicle id="type1_313" type="type1" route="en" depart="795.9986211922202" />
<vehicle id="type1_314" type="type1" route="en" depart="797.3012830311212" />
<vehicle id="type1_315" type="type1" route="nw" depart="797.3156076076316" />
<vehicle id="type1_316" type="type1" route="ws" depart="797.4829862815598" />
<vehicle id="type1_317" type="type1" route="wn" depart="798.1478640719714" />
<vehicle id="type1_318" type="type1" route="sn" depart="798.3171372106428" />
<vehicle id="type1_319" type="type1" route="nw" depart="798.8668602224592" />
<vehicle id="type1_320" type="type1" route="es" depart="799.090188183877" />
<vehicle id="type1_321" type="type1" route="ws" depart="799.9142078146028" />
<vehicle id="type1_322" type="type1" route="en" depart="800.125377740634" />
<vehicle id="type1_323" type="type1" route="we" depart="807.035516512941" />
<vehicle id="type1_324" type="type1" route="ne" depart="807.5727669731502" />
<vehicle id="type1_325" type="type1" route="ns" depart="810.2364454305639" />
<vehicle id="type1_326" type="type1" route="we" depart="811.2676081851807" />
<vehicle id="type1_327" type="type1" route="ns" depart="814.1990130681315" />
<vehicle id="type1_328" type="type1" route="ne" depart="815.2669440075156" />
<vehicle id="type1_329" type="type1" route="se" depart="815.868090246927" />
<vehicle id="type1_330" type="type1" route="ws" depart="816.3208410651893" />
<vehicle id="type1_331" type="type1" route="sw" depart="818.38669190985" />
<vehicle id="type1_332" type="type1" route="ns" depart="820.4452981792786" />
<vehicle id="type1_333" type="type1" route="ew" depart="824.1086813022329" />
<vehicle id="type1_334" type="type1" route="sn" depart="831.0629964358619" />
<vehicle id="type1_335" type="type1" route="ew" depart="837.1457653372473" />
<vehicle id="type1_336" type="type1" route="sw" depart="839.6978061154767" />
<vehicle id="type1_337" type="type1" route="sw" depart="840.9255641008023" />
<vehicle id="type1_338" type="type1" route="en" depart="850.5615924278416" />
<vehicle id="emv_5" type="rescue" route="sn" depart="852.275862630256" />
<vehicle id="type1_339" type="type1" route="sn" depart="855.0949139007074" />
<vehicle id="type1_340" type="type1" route="nw" depart="855.6395797254157" />
<vehicle id="type1_341" type="type1" route="ne" depart="855.7719149324927" />
<vehicle id="type1_342" type="type1" route="se" depart="856.6987155435767" />
<vehicle id="type1_343" type="type1" route="se" depart="859.6736721355999" />
<vehicle id="type1_344" type="type1" route="we" depart="866.6730187646235" />
<vehicle id="type1_345" type="type1" route="sw" depart="867.1997557208161" />
<vehicle id="emv_6" type="rescue" route="wn" depart="872.3907770661244" />
<vehicle id="type1_346" type="type1" route="we" depart="873.969343795082" />
<vehicle id="type1_347" type="type1" route="wn" depart="875.8203725796582" />
<vehicle id="type1_348" type="type1" route="we" depart="880.6560052784131" />
<vehicle id="type1_349" type="type1" route="we" depart="885.3625690379091" />
<vehicle id="type1_350" type="type1" route="wn" depart="886.4596140364042" />
<vehicle id="type1_351" type="type1" route="ne" depart="889.2582569016852" />
<vehicle id="type1_352" type="type1" route="se" depart="890.2652979687367" />
<vehicle id="type1_353" type="type1" route="sw" depart="892.4143985226925" />
<vehicle id="type1_354" type="type1" route="sw" depart="896.1398195444388" />
<vehicle id="type1_355" type="type1" route="we" depart="896.189102694003" />
<vehicle id="type1_356" type="type1" route="es" depart="898.2935694394621" />
<vehicle id="type1_357" type="type1" route="sn" depart="898.6423566046723" />
<vehicle id="type1_358" type="type1" route="ew" depart="902.4958899235236" />
<vehicle id="type1_359" type="type1" route="we" depart="902.9826079522193" />
<vehicle id="type1_360" type="type1" route="en" depart="909.0184861619628" />
<vehicle id="type1_361" type="type1" route="es" depart="913.316378647495" />