<routes>
            <vType id="type1" accel="0.8" decel="4.5" sigma="0.5" length="5" maxSpeed="70"/>
            <vType id="rescue" vClass="emergency" speedFactor="1.5" guiShape="emergency">
                <param key="has.bluelight.device" value="true"/>
            </vType>
            <route id="ne" edges="ni eo"/>
            <route id="ns" edges="ni so"/>
            <route id="nw" edges="ni wo"/>
            <route id="en" edges="ei no"/>
            <route id="es" edges="ei so"/>
            <route id="ew" edges="ei wo"/>
            <route id="sn" edges="si no"/>
            <route id="se" edges="si eo"/>
            <route id="sw" edges="si wo"/>
            <route id="wn" edges="wi no"/>
            <route id="we" edges="wi eo"/>
            <route id="ws" edges="wi so"/>
        <vehicle id="type1_1" type="type1" route="wn" depart="0.4461538646706752" />
<vehicle id="type1_2" type="type1" route="sn" depart="1.2189708786175895" />
<vehicle id="type1_3" type="type1" route="en" depart="1.5248854349738612" />
<vehicle id="type1_4" type="type1" route="sn" depart="5.652231128954792" />
<vehicle id="type1_5" type="type1" route="we" depart="8.02054209368277" />
<vehicle id="type1_6" type="type1" route="ne" depart="10.961519789633812" />
<vehicle id="type1_7" type="type1" route="ew" depart="12.353051338841615" />
<vehicle id="emv_1" type="rescue" route="ws" depart="14.19089620226616" />
<vehicle id="type1_8" type="type1" route="ne" depart="17.041082066082758" />
<vehicle id="type1_9" type="type1" route="nw" depart="17.334779601089856" />
<vehicle id="type1_10" type="type1" route="se" depart="18.80083241163131" />
<vehicle id="type1_11" type="type1" route="we" depart="20.08860848138867" />
<vehicle id="type1_12" type="type1" route="nw" depart="20.981279326365378" />
<vehicle id="type1_13" type="type1" route="we" depart="21.76239849791825" />
<vehicle id="type1_14" type="type1" route="sn" depart="22.705049808816693" />
<vehicle id="type1_15" type="type1" route="en" depart="22.900894230830094" />
<vehicle id="type1_16" type="type1" route="wn" depart="22.96459104274686" />
<vehicle id="type1_17" type="type1" route="wn" depart="23.08481462589248" />
<vehicle id="type1_18" type="type1" route="nw" depart="23.18245990244767" />
<vehicle id="type1_19" type="type1" route="es" depart="23.50547537203286" />
<vehicle id="type1_20" type="type1" route="en" depart="23.87211045534217" />
<vehicle id="type1_21" type="type1" route="sw" depart="29.599426928393775" />
<vehicle id="type1_22" type="type1" route="sn" depart="29.869669759101523" />
<vehicle id="type1_23" type="type1" route="wn" depart="31.20777249745469" />
<vehicle id="type1_24" type="type1" route="sw" depart="31.418712774443204" />
<vehicle id="type1_25" type="type1" route="en" depart="32.70234240335772" />
<vehicle id="type1_26" type="type1" route="en" depart="32.90109723654788" />
<vehicle id="type1_27" type="type1" route="sn" depart="34.122064301600496" />
<vehicle id="type1_28" type="type1" route="wn" depart="36.063275380923976" />
<vehicle id="type1_29" type="type1" route="sw" depart="37.6549650838791" />
<vehicle id="type1_30" type="type1" route="ns" depart="39.706250405322486" />
<vehicle id="type1_31" type="type1" route="wn" depart="40.073400717896256" />
<vehicle id="type1_32" type="type1" route="wn" depart="40.210026605954866" />
<vehicle id="type1_33" type="type1" route="ns" depart="43.24353394524927" />
<vehicle id="type1_34" type="type1" route="en" depart="43.86160118607332" />
<vehicle id="emv_2" type="rescue" route="se" depart="46.33306685346192" />
<vehicle id="type1_35" type="type1" route="sn" depart="46.66738069743873" />
<vehicle id="type1_36" type="type1" route="es" depart="46.73348934090015" />
<vehicle id="type1_37" type="type1" route="sw" depart="46.8339162523662" />
<vehicle id="type1_38" type="type1" route="ns" depart="47.3498871337025" />
<vehicle id="type1_39" type="type1" route="es" depart="49.428866081795555" />
<vehicle id="type1_40" type="type1" route="we" depart="50.75472116001514" />
<vehicle id="type1_41" type="type1" route="nw" depart="52.259678863979644" />
<vehicle id="type1_42" type="type1" route="sn" depart="53.62395392540543" />
<vehicle id="type1_43" type="type1" route="ew" depart="54.063001546121306" />
<vehicle id="type1_44" type="type1" route="ne" depart="54.43286536036644" />
<vehicle id="type1_45" type="type1" route="ne" depart="55.48859584528011" />
<vehicle id="type1_46" type="type1" route="ew" depart="56.38499943719723" />
<vehicle id="type1_47" type="type1" route="es" depart="57.0400010097707" />
<vehicle id="type1_48" type="type1" route="wn" depart="57.82014085612969" />
<vehicle id="type1_49" type="type1" route="sn" depart="59.173075327984606" />
<vehicle id="type1_50" type="type1" route="en" depart="60.451624628018244" />
<vehicle id="type1_51" type="type1" route="es" depart="60.68469917967057" />
<vehicle id="type1_52" type="type1" route="wn" depart="60.75518651488266" />
<vehicle id="type1_53" type="type1" route="nw" depart="62.89850854287096" />
<vehicle id="type1_54" type="type1" route="sn" depart="65.06544256529043" />
<vehicle id="type1_55" type="type1" route="nw" depart="66.8919779190655" />
<vehicle id="type1_56" type="type1" route="wn" depart="69.90147673253244" />
<vehicle id="type1_57" type="type1" route="se" depart="72.26597540926859" />
<vehicle id="type1_58" type="type1" route="nw" depart="72.45305945123063" />
<vehicle id="type1_59" type="type1" route="ns" depart="72.61000073248137" />
<vehicle id="type1_60" type="type1" route="se" depart="76.2164559842222" />
<vehicle id="type1_61" type="type1" route="ne" depart="77.49744259428792" />
<vehicle id="type1_62" type="type1" route="ns" depart="78.57272817153603" />
<vehicle id="type1_63" type="type1" route="ns" depart="79.48706973522505" />
<vehicle id="type1_64" type="type1" route="wn" depart="79.64779171724248" />
<vehicle id="type1_65" type="type1" route="sn" depart="81.6046202698756" />
<vehicle id="type1_66" type="type1" route="se" depart="83.01711635139333" />
<vehicle id="type1_67" type="type1" route="sn" depart="83.67767064436046" />
<vehicle id="type1_68" type="type1" route="es" depart="84.26178262752893" />
<vehicle id="type1_69" type="type1" route="ws" depart="85.29408546362092" />
<vehicle id="type1_70" type="type1" route="ew" depart="85.36674974198166" />
<vehicle id="type1_71" type="type1" route="sw" depart="90.11813119827383" />
<vehicle id="type1_72" type="type1" route="en" depart="91.46966462212022" />
<vehicle id="type1_73" type="type1" route="ne" depart="92.70554770264202" />
<vehicle id="type1_74" type="type1" route="we" depart="93.23456536421179" />
<vehicle id="type1_75" type="type1" route="wn" depart="93.91395657283165" />
<vehicle id="type1_76" type="type1" route="sn" depart="95.90423721767526" />
<vehicle id="type1_77" type="type1" route="ns" depart="98.35558540252309" />
<vehicle id="type1_78" type="type1" route="se" depart="100.22860106437042" />
<vehicle id="type1_79" type="type1" route="en" depart="100.54726177763243" />
<vehicle id="type1_80" type="type1" route="ns" depart="100.55465090834623" />
<vehicle id="type1_81" type="type1" route="sw" depart="101.6644142407383" />
<vehicle id="emv_3" type="rescue" route="ns" depart="101.68142899624425" />
<vehicle id="type1_82" type="type1" route="es" depart="103.74575723213839" />
<vehicle id="type1_83" type="type1" route="sn" depart="106.13452925209191" />
<vehicle id="type1_84" type="type1" route="wn" depart="108.79889839395628" />
<vehicle id="emv_4" type="rescue" route="en" depart="110.54934883983942" />
<vehicle id="type1_85" type="type1" route="nw" depart="111.72705676986882" />
<vehicle id="type1_86" type="type1" route="en" depart="115.2916941496823" />
<vehicle id="type1_87" type="type1" route="ns" depart="116.41193872909585" />
<vehicle id="type1_88" type="type1" route="es" depart="119.30297972112662" />
<vehicle id="type1_89" type="type1" route="sn" depart="119.31070052225914" />
<vehicle id="type1_90" type="type1" route="ws" depart="120.3737006905091" />
<vehicle id="type1_91" type="type1" route="ws" depart="126.89607131868141" />
<vehicle id="type1_92" type="type1" route="we" depart="127.52471436294319" />
<vehicle id="type1_93" type="type1" route="en" depart="130.77495044702098" />
<vehicle id="type1_94" type="type1" route="ew" depart="132.6002001715781" />
<vehicle id="type1_95" type="type1" route="we" depart="133.41850265144302" />
<vehicle id="type1_96" type="type1" route="se" depart="134.48689500551973" />
<vehicle id="type1_97" type="type1" route="se" depart="136.485373704258" />
<vehicle id="type1_98" type="type1" route="we" depart="137.72448299648903" />
<vehicle id="type1_99" type="type1" route="se" depart="139.41622934930973" />
<vehicle id="type1_100" type="type1" route="ne" depart="140.92598636230846" />
<vehicle id="type1_101" type="type1" route="ew" depart="140.94180505211835" />
<vehicle id="type1_102" type="type1" route="en" depart="144.60368589815766" />
<vehicle id="type1_103" type="type1" route="es" depart="144.96192927553804" />
<vehicle id="type1_104" type="type1" route="es" depart="148.52694746755176" />
<vehicle id="type1_105" type="type1" route="sw" depart="150.1090638652818" />
<vehicle id="type1_106" type="type1" route="se" depart="150.17707864685192" />
<vehicle id="type1_107" type="type1" route="ew" depart="151.2915377542127" />
<vehicle id="type1_108" type="type1" route="es" depart="154.93552869112534" />
<vehicle id="type1_109" type="type1" route="sn" depart="159.3719272330885" />
<vehicle id="type1_110" type="type1" route="wn" depart="159.5808402530431" />
<vehicle id="type1_111" type="type1" route="ws" depart="159.78063582571332" />
<vehicle id="type1_112" type="type1" route="ew" depart="159.8966120006968" />
<vehicle id="type1_113" type="type1" route="se" depart="162.89858853820994" />
<vehicle id="type1_114" type="type1" route="nw" depart="164.06781422949518" />
<vehicle id="type1_115" type="type1" route="se" depart="164.75418989694558" />
<vehicle id="type1_116" type="type1" route="ns" depart="164.76251602710755" />
<vehicle id="type1_117" type="type1" route="ws" depart="165.8858964238006" />
<vehicle id="type1_118" type="type1" route="ne" depart="166.30245797568148" />
<vehicle id="type1_119" type="type1" route="we" depart="166.3971426968337" />
<vehicle id="type1_120" type="type1" route="ws" depart="166.48179111887347" />
<vehicle id="type1_121" type="type1" route="ew" depart="167.08386270673643" />
<vehicle id="type1_122" type="type1" route="nw" depart="168.3565820894938" />
<vehicle id="type1_123" type="type1" route="es" depart="168.63799834233154" />
<vehicle id="type1_124" type="type1" route="ne" depart="168.63955860040025" />
<vehicle id="type1_125" type="type1" route="ws" depart="170.28306968092815" />
<vehicle id="type1_126" type="type1" route="se" depart="173.12457861546613" />
<vehicle id="emv_5" type="rescue" route="wn" depart="174.2257981516249" />
<vehicle id="type1_127" type="type1" route="wn" depart="177.21866025760508" />
<vehicle id="type1_128" type="type1" route="en" depart="177.32195387509782" />
<vehicle id="type1_129" type="type1" route="wn" depart="182.12807284243559" />
<vehicle id="type1_130" type="type1" route="wn" depart="182.91185593785573" />
<vehicle id="type1_131" type="type1" route="ew" depart="184.03544337399347" />
<vehicle id="type1_132" type="type1" route="we" depart="184.1962786880994" />
<vehicle id="type1_133" type="type1" route="ne" depart="187.85151568184318" />
<vehicle id="type1_134" type="type1" route="ew" depart="187.9107992939184" />
<vehicle id="type1_135" type="type1" route="se" depart="188.6608791382107" />
<vehicle id="type1_136" type="type1" route="we" depart="192.29219807124565" />
<vehicle id="type1_137" type="type1" route="nw" depart="193.53304583026318" />
<vehicle id="emv_6" type="rescue" route="ew" depart="194.0328702930025" />
<vehicle id="type1_138" type="type1" route="ne" depart="194.68587584215953" />
<vehicle id="type1_139" type="type1" route="sw" depart="195.73032102467633" />
<vehicle id="type1_140" type="type1" route="ew" depart="196.46474327345751" />
<vehicle id="type1_141" type="type1" route="sn" depart="198.81999626188735" />
<vehicle id="type1_142" type="type1" route="ew" depart="199.24486156219203" />
<vehicle id="type1_143" type="type1" route="sn" depart="203.287080748048" />
<vehicle id="type1_144" type="type1" route="wn" depart="204.72515044097958" />
<vehicle id="emv_7" type="rescue" route="sn" depart="207.05747914297237" />
<vehicle id="type1_145" type="type1" route="nw" depart="207.449005213615" />
<vehicle id="type1_146" type="type1" route="se" depart="208.68455070596403" />
<vehicle id="type1_147" type="type1" route="ew" depart="208.91492811730834" />
<vehicle id="type1_148" type="type1" route="sw" depart="210.61748971864986" />
<vehicle id="type1_149" type="type1" route="en" depart="211.51602498377687" />
<vehicle id="type1_150" type="type1" route="we" depart="212.549007655962" />
<vehicle id="type1_151" type="type1" route="nw" depart="213.21018513253128" />
<vehicle id="type1_152" type="type1" route="en" depart="214.9432010570911" />
<vehicle id="type1_153" type="type1" route="ew" depart="216.61842410920764" />
<vehicle id="type1_154" type="type1" route="ne" depart="218.30046665540257" />
<vehicle id="type1_155" type="type1" route="nw" depart="219.9013785544556" />
<vehicle id="type1_156" type="type1" route="en" depart="227.47997227659013" />
<vehicle id="type1_157" type="type1" route="nw" depart="227.99769995491624" />
<vehicle id="type1_158" type="type1" route="wn" depart="228.53860922539124" />
<vehicle id="type1_159" type="type1" route="nw" depart="229.24568641699366" />
<vehicle id="type1_160" type="type1" route="ne" depart="230.84193970785708" />
<vehicle id="type1_161" type="type1" route="se" depart="231.35490649000567" />
<vehicle id="type1_162" type="type1" route="en" depart="233.2330016775802" />
<vehicle id="type1_163" type="type1" route="nw" depart="233.30892141431886" />
<vehicle id="type1_164" type="type1" route="sn" depart="235.64099155683556" />
<vehicle id="type1_165" type="type1" route="ew" depart="237.27779212987107" />
<vehicle id="type1_166" type="type1" route="nw" depart="237.97613845241347" />
<vehicle id="type1_167" type="type1" route="nw" depart="238.04746366545362" />
<vehicle id="type1_168" type="type1" route="se" depart="238.73266650085898" />
<vehicle id="type1_169" type="type1" route="we" depart="239.46421290881523" />
<vehicle id="type1_170" type="type1" route="se" depart="241.7791038020219" />
<vehicle id="type1_171" type="type1" route="se" depart="244.06689927530107" />
<vehicle id="type1_172" type="type1" route="ns" depart="244.25559657027435" />
<vehicle id="type1_173" type="type1" route="se" depart="247.94748877177707" />
<vehicle id="type1_174" type="type1" route="es" depart="248.35203217422034" />
<vehicle id="type1_175" type="type1" route="sw" depart="250.1841956032995" />
<vehicle id="type1_176" type="type1" route="ns" depart="251.94465476372426" />
<vehicle id="type1_177" type="type1" route="sw" depart="253.70083288570157" />
<vehicle id="type1_178" type="type1" route="wn" depart="253.76064179531048" />
<vehicle id="type1_179" type="type1" route="es" depart="254.5631236403384" />
<vehicle id="type1_180" type="type1" route="nw" depart="257.70956496085194" />
<vehicle id="type1_181" type="type1" route="se" depart="258.48236653439847" />
<vehicle id="type1_182" type="type1" route="ns" depart="258.81684380840113" />
<vehicle id="type1_183" type="type1" route="sn" depart="260.9010312752753" />
<vehicle id="type1_184" type="type1" route="se" depart="260.9140653792502" />
<vehicle id="type1_185" type="type1" route="es" depart="261.4214000986011" />
<vehicle id="type1_186" type="type1" route="en" depart="267.6881333487974" />
<vehicle id="type1_187" type="type1" route="sw" depart="267.919294852944" />
<vehicle id="type1_188" type="type1" route="ns" depart="274.3403366773188" />
<vehicle id="type1_189" type="type1" route="ne" depart="276.5183932299726" />
<vehicle id="type1_190" type="type1" route="se" depart="277.3804470448747" />
<vehicle id="type1_191" type="type1" route="nw" depart="278.35641686048854" />
<vehicle id="type1_192" type="type1" route="ew" depart="279.28323477792685" />
<vehicle id="emv_8" type="rescue" route="sn" depart="280.5370448158588" />
<vehicle id="type1_193" type="type1" route="nw" depart="282.1738026966086" />
<vehicle id="type1_194" type="type1" route="nw" depart="282.3462794977411" />
<vehicle id="type1_195" type="type1" route="en" depart="287.52293430677184" />
<vehicle id="type1_196" type="type1" route="en" depart="287.84965332828995" />
<vehicle id="type1_197" type="type1" route="sw" depart="288.2644789166334" />
<vehicle id="type1_198" type="type1" route="se" depart="289.0998084760123" />
<vehicle id="type1_199" type="type1" route="ne" depart="291.820131588096" />
<vehicle id="type1_200" type="type1" route="ns" depart="292.618590093571" />
<vehicle id="type1_201" type="type1" route="ne" depart="293.2371284476736" />
<vehicle id="type1_202" type="type1" route="nw" depart="295.80681892638654" />
<vehicle id="type1_203" type="type1" route="se" depart="296.86317997577356" />
<vehicle id="type1_204" type="type1" route="we" depart="297.08470101978946" />
<vehicle id="type1_205" type="type1" route="we" depart="298.4358009211146" />
<vehicle id="type1_206" type="type1" route="se" depart="299.48565465578156" />
<vehicle id="type1_207" type="type1" route="sw" depart="299.8613144107515" />
<vehicle id="type1_208" type="type1" route="ws" depart="300.0197304912632" />
<vehicle id="type1_209" type="type1" route="sn" depart="300.2898565901595" />
<vehicle id="type1_210" type="type1" route="nw" depart="300.30456327972894" />
<vehicle id="type1_211" type="type1" route="we" depart="300.6409628382035" />
<vehicle id="type1_212" type="type1" route="ws" depart="301.44457137519305" />
<vehicle id="type1_213" type="type1" route="we" depart="302.1621021271703" />
<vehicle id="type1_214" type="type1" route="es" depart="303.51779308973806" />
<vehicle id="type1_215" type="type1" route="ns" depart="306.3576134372172" />
<vehicle id="type1_216" type="type1" route="nw" depart="307.2219758891218" />
<vehicle id="type1_217" type="type1" route="sw" depart="307.23900798194825" />
<vehicle id="type1_218" type="type1" route="ns" depart="307.90290690100295" />
<vehicle id="type1_219" type="type1" route="es" depart="308.11395760114124" />
<vehicle id="type1_220" type="type1" route="ew" depart="308.5080458974476" />
<vehicle id="type1_221" type="type1" route="wn" depart="310.7068760628405" />
<vehicle id="type1_222" type="type1" route="sw" depart="310.7598223418845" />
<vehicle id="type1_223" type="type1" route="sw" depart="310.87999542263094" />
<vehicle id="type1_224" type="type1" route="ne" depart="311.49518582809094" />
<vehicle id="type1_225" type="type1" route="wn" depart="312.44588197279205" />
<vehicle id="type1_226" type="type1" route="en" depart="314.2397896772649" />
<vehicle id="type1_227" type="type1" route="en" depart="314.9937249620987" />
<vehicle id="type1_228" type="type1" route="ws" depart="319.8684598397634" />
<vehicle id="type1_229" type="type1" route="nw" depart="321.1664661126798" />
<vehicle id="type1_230" type="type1" route="ew" depart="325.2675606871997" />
<vehicle id="type1_231" type="type1" route="ws" depart="325.34293649732956" />
<vehicle id="type1_232" type="type1" route="es" depart="328.72104072111614" />
<vehicle id="type1_233" type="type1" route="sn" depart="335.44423782642616" />
<vehicle id="type1_234" type="type1" route="we" depart="336.01390274596736" />
<vehicle id="type1_235" type="type1" route="se" depart="338.2137132784773" />
<vehicle id="type1_236" type="type1" route="sn" depart="339.16230552346747" />
<vehicle id="type1_237" type="type1" route="ws" depart="340.18366339820676" />
<vehicle id="type1_238" type="type1" route="nw" depart="340.6127092895376" />
<vehicle id="type1_239" type="type1" route="we" depart="340.6567106406564" />
<vehicle id="type1_240" type="type1" route="ne" depart="343.5523472304523" />
<vehicle id="type1_241" type="type1" route="se" depart="344.6884888598813" />
<vehicle id="type1_242" type="type1" route="ws" depart="344.81902578005315" />
<vehicle id="type1_243" type="type1" route="en" depart="346.99207994459056" />
<vehicle id="type1_244" type="type1" route="ew" depart="348.0547605359421" />
<vehicle id="type1_245" type="type1" route="wn" depart="348.17346484146077" />
<vehicle id="type1_246" type="type1" route="sw" depart="348.3020939430691" />
<vehicle id="type1_247" type="type1" route="we" depart="348.5353994817333" />
<vehicle id="type1_248" type="type1" route="ws" depart="348.53955373303626" />
<vehicle id="type1_249" type="type1" route="nw" depart="353.00038946936667" />
<vehicle id="type1_250" type="type1" route="ne" depart="353.12688560150133" />
<vehicle id="type1_251" type="type1" route="sw" depart="353.1970474927281" />
<vehicle id="type1_252" type="type1" route="se" depart="358.92008155168753" />
<vehicle id="type1_253" type="type1" route="ns" depart="359.36927602834777" />
<vehicle id="type1_254" type="type1" route="ws" depart="359.3734865458895" />
<vehicle id="emv_9" type="rescue" route="ne" depart="362.12474548247576" />
<vehicle id="type1_255" type="type1" route="ew" depart="362.155468180922" />
<vehicle id="type1_256" type="type1" route="we" depart="362.30667619429454" />
<vehicle id="type1_257" type="type1" route="wn" depart="363.4435284862533" />
<vehicle id="type1_258" type="type1" route="ws" depart="366.6881729654455" />
<vehicle id="type1_259" type="type1" route="ns" depart="367.0071471530811" />
<vehicle id="type1_260" type="type1" route="ew" depart="367.2646714298838" />
<vehicle id="type1_261" type="type1" route="se" depart="368.7613474494471" />
<vehicle id="type1_262" type="type1" route="ws" depart="370.36283135772544" />
<vehicle id="type1_263" type="type1" route="we" depart="370.78521844138737" />
<vehicle id="type1_264" type="type1" route="ws" depart="371.5822044998536" />
<vehicle id="type1_265" type="type1" route="we" depart="373.29934133615956" />
<vehicle id="type1_266" type="type1" route="en" depart="374.56494164743253" />
<vehicle id="type1_267" type="type1" route="se" depart="378.6745010716507" />
<vehicle id="type1_268" type="type1" route="sw" depart="381.4836631723202" />
<vehicle id="type1_269" type="type1" route="we" depart="381.8456849515484" />
<vehicle id="type1_270" type="type1" route="we" depart="384.28125633799704" />
<vehicle id="emv_10" type="rescue" route="en" depart="384.35653889621045" />
<vehicle id="type1_271" type="type1" route="sw" depart="385.46677504663" />
<vehicle id="type1_272" type="type1" route="nw" depart="386.55355131891463" />
<vehicle id="type1_273" type="type1" route="wn" depart="388.2445806665259" />
<vehicle id="type1_274" type="type1" route="ns" depart="388.9669123479261" />
<vehicle id="type1_275" type="type1" route="sn" depart="394.84503840263557" />
<vehicle id="type1_276" type="type1" route="en" depart="395.77185962531854" />
<vehicle id="type1_277" type="type1" route="sn" depart="397.33654389453994" />
<vehicle id="type1_278" type="type1" route="nw" depart="397.47183214604036" />
<vehicle id="type1_279" type="type1" route="we" depart="397.74181589096787" />
<vehicle id="type1_280" type="type1" route="ew" depart="399.5485494924793" />
<vehicle id="type1_281" type="type1" route="es" depart="402.5531282766439" />
<vehicle id="type1_282" type="type1" route="sn" depart="403.47022862466986" />
<vehicle id="type1_283" type="type1" route="ew" depart="404.29611560975604" />
<vehicle id="type1_284" type="type1" route="we" depart="405.14172824704576" />
<vehicle id="type1_285" type="type1" route="ws" depart="406.85025637453504" />
<vehicle id="type1_286" type="type1" route="ne" depart="408.33253260454825" />
<vehicle id="type1_287" type="type1" route="es" depart="410.12721053840306" />
<vehicle id="type1_288" type="type1" route="ns" depart="413.73067165002095" />
<vehicle id="type1_289" type="type1" route="se" depart="413.8336063002626" />
<vehicle id="type1_290" type="type1" route="ns" depart="415.7788017340316" />
</routes>