<routes>
            <vType id="type1" accel="0.8" decel="4.5" sigma="0.5" length="5" maxSpeed="70"/>
            <route id="ne" edges="ni eo"/>
            <route id="ns" edges="ni so"/>
            <route id="nw" edges="ni wo"/>
            <route id="en" edges="ei no"/>
            <route id="es" edges="ei so"/>
            <route id="ew" edges="ei wo"/>
            <route id="sn" edges="si no"/>
            <route id="se" edges="si eo"/>
            <route id="sw" edges="si wo"/>
            <route id="wn" edges="wi no"/>
            <route id="we" edges="wi eo"/>
            <route id="ws" edges="wi so"/>
        
            <personFlow id="p_ne" begin="0" end="600" period="50">
                <walk route="ne"/>
            </personFlow>
                         
            <personFlow id="p_ns" begin="0" end="600" period="50">
                <walk route="ns"/>
            </personFlow>
                         
            <personFlow id="p_nw" begin="0" end="600" period="50">
                <walk route="nw"/>
            </personFlow>
                         
            <personFlow id="p_en" begin="0" end="600" period="50">
                <walk route="en"/>
            </personFlow>
                         
            <personFlow id="p_es" begin="0" end="600" period="50">
                <walk route="es"/>
            </personFlow>
                         
            <personFlow id="p_ew" begin="0" end="600" period="50">
                <walk route="ew"/>
            </personFlow>
                         
            <personFlow id="p_se" begin="0" end="600" period="50">
                <walk route="se"/>
            </personFlow>
                         
            <personFlow id="p_sn" begin="0" end="600" period="50">
                <walk route="sn"/>
            </personFlow>
                         
            <personFlow id="p_sw" begin="0" end="600" period="50">
                <walk route="sw"/>
            </personFlow>
                         
            <personFlow id="p_wn" begin="0" end="600" period="50">
                <walk route="wn"/>
            </personFlow>
                         
            <personFlow id="p_we" begin="0" end="600" period="50">
                <walk route="we"/>
            </personFlow>
                         
            <personFlow id="p_ws" begin="0" end="600" period="50">
                <walk route="ws"/>
            </personFlow>
                         <vehicle id="wn_0" type="type1" route="wn" depart="2.126874666935092" />
<vehicle id="ne_1" type="type1" route="ne" depart="2.470615636450132" />
<vehicle id="se_2" type="type1" route="se" depart="3.7994771966393186" />
<vehicle id="sn_3" type="type1" route="sn" depart="4.430042914985034" />
<vehicle id="wn_4" type="type1" route="wn" depart="4.863127321714769" />
<vehicle id="ne_5" type="type1" route="ne" depart="5.136019601443908" />
<vehicle id="en_6" type="type1" route="en" depart="6.296445331985922" />
<vehicle id="sn_7" type="type1" route="sn" depart="6.428615276434611" />
<vehicle id="sn_8" type="type1" route="sn" depart="7.336058666628318" />
<vehicle id="es_9" type="type1" route="es" depart="7.974902672349927" />
<vehicle id="we_10" type="type1" route="we" depart="8.096977178258738" />
<vehicle id="nw_11" type="type1" route="nw" depart="9.545051863884114" />
<vehicle id="ne_12" type="type1" route="ne" depart="10.261986517557634" />
<vehicle id="sw_13" type="type1" route="sw" depart="11.332441725630726" />
<vehicle id="sn_14" type="type1" route="sn" depart="11.351872801193139" />
<vehicle id="ew_15" type="type1" route="ew" depart="12.125866576849003" />
<vehicle id="ns_16" type="type1" route="ns" depart="12.467372870639007" />
<vehicle id="en_17" type="type1" route="en" depart="12.65008505618605" />
<vehicle id="ws_18" type="type1" route="ws" depart="14.375372242113238" />
<vehicle id="ew_19" type="type1" route="ew" depart="15.571144802655658" />
<vehicle id="ne_20" type="type1" route="ne" depart="15.74101600193308" />
<vehicle id="se_21" type="type1" route="se" depart="15.86063649078034" />
<vehicle id="nw_22" type="type1" route="nw" depart="16.021356717112077" />
<vehicle id="wn_23" type="type1" route="wn" depart="16.816798308274674" />
<vehicle id="ew_24" type="type1" route="ew" depart="17.00577247770525" />
<vehicle id="se_25" type="type1" route="se" depart="17.425071925425147" />
<vehicle id="se_26" type="type1" route="se" depart="17.534884256323288" />
<vehicle id="es_27" type="type1" route="es" depart="17.859915989034675" />
<vehicle id="we_28" type="type1" route="we" depart="17.91804032588921" />
<vehicle id="es_29" type="type1" route="es" depart="18.37725660545739" />
<vehicle id="sn_30" type="type1" route="sn" depart="19.04775746443404" />
<vehicle id="nw_31" type="type1" route="nw" depart="19.260805127086574" />
<vehicle id="we_32" type="type1" route="we" depart="19.29181987269308" />
<vehicle id="es_33" type="type1" route="es" depart="19.781073323200026" />
<vehicle id="we_34" type="type1" route="we" depart="19.82490261990483" />
<vehicle id="ew_35" type="type1" route="ew" depart="20.31150431477406" />
<vehicle id="nw_36" type="type1" route="nw" depart="21.026290558359733" />
<vehicle id="sn_37" type="type1" route="sn" depart="21.116271153087222" />
<vehicle id="en_38" type="type1" route="en" depart="21.235471962033316" />
<vehicle id="sn_39" type="type1" route="sn" depart="21.78949466722586" />
<vehicle id="wn_40" type="type1" route="wn" depart="23.071893069260543" />
<vehicle id="se_41" type="type1" route="se" depart="23.314328782967557" />
<vehicle id="ne_42" type="type1" route="ne" depart="23.433715593575894" />
<vehicle id="wn_43" type="type1" route="wn" depart="23.887297447646972" />
<vehicle id="ne_44" type="type1" route="ne" depart="23.98584303103213" />
<vehicle id="en_45" type="type1" route="en" depart="24.471299058735227" />
<vehicle id="nw_46" type="type1" route="nw" depart="25.298529491199535" />
<vehicle id="en_47" type="type1" route="en" depart="26.47828183920801" />
<vehicle id="es_48" type="type1" route="es" depart="26.647977540926902" />
<vehicle id="sw_49" type="type1" route="sw" depart="27.10146645563795" />
<vehicle id="ew_50" type="type1" route="ew" depart="29.085232173516793" />
<vehicle id="en_51" type="type1" route="en" depart="29.584566198833965" />
<vehicle id="ew_52" type="type1" route="ew" depart="29.821198996289255" />
<vehicle id="we_53" type="type1" route="we" depart="30.19195571807647" />
<vehicle id="sw_54" type="type1" route="sw" depart="30.251808729702272" />
<vehicle id="sn_55" type="type1" route="sn" depart="31.06189997299537" />
<vehicle id="se_56" type="type1" route="se" depart="33.53998369545012" />
<vehicle id="sn_57" type="type1" route="sn" depart="33.96041316713641" />
<vehicle id="ns_58" type="type1" route="ns" depart="34.18591396060781" />
<vehicle id="we_59" type="type1" route="we" depart="34.20506807383746" />
<vehicle id="wn_60" type="type1" route="wn" depart="36.65903988432765" />
<vehicle id="ew_61" type="type1" route="ew" depart="36.736011505434085" />
<vehicle id="sw_62" type="type1" route="sw" depart="37.25836565543338" />
<vehicle id="nw_63" type="type1" route="nw" depart="37.29921001842178" />
<vehicle id="en_64" type="type1" route="en" depart="39.83674712688977" />
<vehicle id="se_65" type="type1" route="se" depart="41.16143698743532" />
<vehicle id="en_66" type="type1" route="en" depart="43.01199223645428" />
<vehicle id="ne_67" type="type1" route="ne" depart="43.0803296292335" />
<vehicle id="ne_68" type="type1" route="ne" depart="43.78025017153086" />
<vehicle id="sn_69" type="type1" route="sn" depart="44.59134615146571" />
<vehicle id="es_70" type="type1" route="es" depart="45.377633713112125" />
<vehicle id="wn_71" type="type1" route="wn" depart="46.07558522313169" />
<vehicle id="we_72" type="type1" route="we" depart="46.14300246541211" />
<vehicle id="ns_73" type="type1" route="ns" depart="47.00793297802319" />
<vehicle id="sw_74" type="type1" route="sw" depart="48.69832799625726" />
<vehicle id="ns_75" type="type1" route="ns" depart="50.81734719661741" />
<vehicle id="nw_76" type="type1" route="nw" depart="51.43994808916856" />
<vehicle id="se_77" type="type1" route="se" depart="52.391902256951255" />
<vehicle id="wn_78" type="type1" route="wn" depart="52.73561960108529" />
<vehicle id="ew_79" type="type1" route="ew" depart="53.416461019392806" />
<vehicle id="wn_80" type="type1" route="wn" depart="53.678392432846124" />
<vehicle id="nw_81" type="type1" route="nw" depart="53.98995578130754" />
<vehicle id="ns_82" type="type1" route="ns" depart="54.225876837542216" />
<vehicle id="ns_83" type="type1" route="ns" depart="55.305618445290825" />
<vehicle id="sn_84" type="type1" route="sn" depart="56.30348853699456" />
<vehicle id="nw_85" type="type1" route="nw" depart="56.9762537854938" />
<vehicle id="en_86" type="type1" route="en" depart="59.566839486927336" />
<vehicle id="ew_87" type="type1" route="ew" depart="60.52231211971237" />
<vehicle id="se_88" type="type1" route="se" depart="60.80064487775974" />
<vehicle id="se_89" type="type1" route="se" depart="63.47579017184352" />
<vehicle id="sn_90" type="type1" route="sn" depart="63.73007810989133" />
<vehicle id="en_91" type="type1" route="en" depart="63.94367745714554" />
<vehicle id="we_92" type="type1" route="we" depart="64.41063157465155" />
<vehicle id="es_93" type="type1" route="es" depart="66.2134065186134" />
<vehicle id="nw_94" type="type1" route="nw" depart="66.46476428194374" />
<vehicle id="wn_95" type="type1" route="wn" depart="66.79484573185245" />
<vehicle id="sw_96" type="type1" route="sw" depart="67.08586694134839" />
<vehicle id="nw_97" type="type1" route="nw" depart="67.11982487550746" />
<vehicle id="ns_98" type="type1" route="ns" depart="67.16095855839396" />
<vehicle id="es_99" type="type1" route="es" depart="67.16575649046067" />
<vehicle id="sn_100" type="type1" route="sn" depart="69.12207402813267" />
<vehicle id="es_101" type="type1" route="es" depart="69.38111148521261" />
<vehicle id="nw_102" type="type1" route="nw" depart="71.3691424856461" />
<vehicle id="we_103" type="type1" route="we" depart="72.22175901141635" />
<vehicle id="we_104" type="type1" route="we" depart="72.61115085920534" />
<vehicle id="nw_105" type="type1" route="nw" depart="72.81113168680959" />
<vehicle id="nw_106" type="type1" route="nw" depart="73.0742488423379" />
<vehicle id="sn_107" type="type1" route="sn" depart="73.1287046894353" />
<vehicle id="ew_108" type="type1" route="ew" depart="74.37807966335322" />
<vehicle id="ew_109" type="type1" route="ew" depart="75.22203153395738" />
<vehicle id="se_110" type="type1" route="se" depart="76.46063198357027" />
<vehicle id="en_111" type="type1" route="en" depart="77.5455143965683" />
<vehicle id="ne_112" type="type1" route="ne" depart="78.36800368596742" />
<vehicle id="sw_113" type="type1" route="sw" depart="78.80867203345512" />
<vehicle id="ws_114" type="type1" route="ws" depart="78.83069711709199" />
<vehicle id="ne_115" type="type1" route="ne" depart="79.0026764824635" />
<vehicle id="ew_116" type="type1" route="ew" depart="79.93766370192048" />
<vehicle id="ew_117" type="type1" route="ew" depart="80.37526299407756" />
<vehicle id="en_118" type="type1" route="en" depart="80.41478869622358" />
<vehicle id="ns_119" type="type1" route="ns" depart="80.45048396679631" />
<vehicle id="es_120" type="type1" route="es" depart="80.71338443604965" />
<vehicle id="sn_121" type="type1" route="sn" depart="80.79946364485184" />
<vehicle id="se_122" type="type1" route="se" depart="81.16565558575331" />
<vehicle id="wn_123" type="type1" route="wn" depart="81.90918310034934" />
<vehicle id="nw_124" type="type1" route="nw" depart="81.92406146455086" />
<vehicle id="se_125" type="type1" route="se" depart="82.46078235314677" />
<vehicle id="sn_126" type="type1" route="sn" depart="83.12361449895002" />
<vehicle id="we_127" type="type1" route="we" depart="84.83879296455561" />
<vehicle id="en_128" type="type1" route="en" depart="85.00727514807906" />
<vehicle id="ws_129" type="type1" route="ws" depart="85.00829226849103" />
<vehicle id="sw_130" type="type1" route="sw" depart="85.42663137810577" />
<vehicle id="es_131" type="type1" route="es" depart="85.54860014613394" />
<vehicle id="sw_132" type="type1" route="sw" depart="86.14968531347054" />
<vehicle id="sn_133" type="type1" route="sn" depart="87.64294827637181" />
<vehicle id="wn_134" type="type1" route="wn" depart="88.22146183773982" />
<vehicle id="sn_135" type="type1" route="sn" depart="88.44115349858924" />
<vehicle id="ns_136" type="type1" route="ns" depart="89.29759794612471" />
<vehicle id="nw_137" type="type1" route="nw" depart="89.6837747236728" />
<vehicle id="sn_138" type="type1" route="sn" depart="89.9139613015116" />
<vehicle id="we_139" type="type1" route="we" depart="92.38721901822967" />
<vehicle id="sn_140" type="type1" route="sn" depart="92.45332848692551" />
<vehicle id="se_141" type="type1" route="se" depart="92.9952266476885" />
<vehicle id="nw_142" type="type1" route="nw" depart="93.22523893213341" />
<vehicle id="se_143" type="type1" route="se" depart="93.73284222974291" />
<vehicle id="sw_144" type="type1" route="sw" depart="94.72557475326077" />
<vehicle id="wn_145" type="type1" route="wn" depart="95.88462152883577" />
<vehicle id="ew_146" type="type1" route="ew" depart="95.99707679660611" />
<vehicle id="sw_147" type="type1" route="sw" depart="96.56930438875173" />
<vehicle id="se_148" type="type1" route="se" depart="96.65560223622941" />
<vehicle id="sn_149" type="type1" route="sn" depart="97.89835340592309" />
<vehicle id="ws_150" type="type1" route="ws" depart="98.50289928649057" />
<vehicle id="nw_151" type="type1" route="nw" depart="98.86473321853327" />
<vehicle id="sw_152" type="type1" route="sw" depart="98.98123458497442" />
<vehicle id="sn_153" type="type1" route="sn" depart="99.50315520471567" />
<vehicle id="ns_154" type="type1" route="ns" depart="99.79834182433925" />
<vehicle id="se_155" type="type1" route="se" depart="101.28172793800128" />
<vehicle id="ne_156" type="type1" route="ne" depart="101.45215399085356" />
<vehicle id="ne_157" type="type1" route="ne" depart="101.81404529750615" />
<vehicle id="sn_158" type="type1" route="sn" depart="102.14742859272266" />
<vehicle id="sw_159" type="type1" route="sw" depart="102.54822367524062" />
<vehicle id="ns_160" type="type1" route="ns" depart="103.64770204526845" />
<vehicle id="ne_161" type="type1" route="ne" depart="104.64306869862853" />
<vehicle id="ew_162" type="type1" route="ew" depart="105.5183549038939" />
<vehicle id="ns_163" type="type1" route="ns" depart="105.96510276849502" />
<vehicle id="nw_164" type="type1" route="nw" depart="108.18346300320599" />
<vehicle id="ns_165" type="type1" route="ns" depart="108.32760509432534" />
<vehicle id="wn_166" type="type1" route="wn" depart="108.737757030549" />
<vehicle id="sn_167" type="type1" route="sn" depart="109.17860005820685" />
<vehicle id="sn_168" type="type1" route="sn" depart="109.96314290950123" />
<vehicle id="nw_169" type="type1" route="nw" depart="111.00057639351903" />
<vehicle id="sn_170" type="type1" route="sn" depart="111.31642008043394" />
<vehicle id="se_171" type="type1" route="se" depart="111.8925189957589" />
<vehicle id="sw_172" type="type1" route="sw" depart="112.03636338833371" />
<vehicle id="sn_173" type="type1" route="sn" depart="112.14586979210122" />
<vehicle id="ew_174" type="type1" route="ew" depart="113.06416364691303" />
<vehicle id="ws_175" type="type1" route="ws" depart="113.97092003378319" />
<vehicle id="es_176" type="type1" route="es" depart="115.5111458536254" />
<vehicle id="ws_177" type="type1" route="ws" depart="115.79763828643361" />
<vehicle id="sn_178" type="type1" route="sn" depart="117.57980091581463" />
<vehicle id="se_179" type="type1" route="se" depart="118.43374512410925" />
<vehicle id="ew_180" type="type1" route="ew" depart="121.73512821860287" />
<vehicle id="we_181" type="type1" route="we" depart="122.44159834118356" />
<vehicle id="sw_182" type="type1" route="sw" depart="122.62545883863343" />
<vehicle id="sw_183" type="type1" route="sw" depart="122.98888991872333" />
<vehicle id="nw_184" type="type1" route="nw" depart="123.24170775401157" />
<vehicle id="ws_185" type="type1" route="ws" depart="123.64474750159042" />
<vehicle id="en_186" type="type1" route="en" depart="124.27212168402805" />
<vehicle id="ew_187" type="type1" route="ew" depart="125.0684283533934" />
<vehicle id="wn_188" type="type1" route="wn" depart="125.22485097901671" />
<vehicle id="ne_189" type="type1" route="ne" depart="125.60421571081883" />
<vehicle id="we_190" type="type1" route="we" depart="127.74082164841974" />
<vehicle id="en_191" type="type1" route="en" depart="127.79287068022164" />
<vehicle id="we_192" type="type1" route="we" depart="128.68147326577963" />
<vehicle id="wn_193" type="type1" route="wn" depart="129.72334393707004" />
<vehicle id="wn_194" type="type1" route="wn" depart="129.9279391001684" />
<vehicle id="we_195" type="type1" route="we" depart="131.23537521075252" />
<vehicle id="sn_196" type="type1" route="sn" depart="131.26581638406483" />
<vehicle id="ne_197" type="type1" route="ne" depart="131.6003085848523" />
<vehicle id="ns_198" type="type1" route="ns" depart="131.91777983320478" />
<vehicle id="es_199" type="type1" route="es" depart="131.93158141184279" />
<vehicle id="se_200" type="type1" route="se" depart="131.96782102365148" />
<vehicle id="en_201" type="type1" route="en" depart="133.7917145623948" />
<vehicle id="ws_202" type="type1" route="ws" depart="134.6447611748318" />
<vehicle id="es_203" type="type1" route="es" depart="135.00516675697722" />
<vehicle id="ns_204" type="type1" route="ns" depart="135.51480087828105" />
<vehicle id="ne_205" type="type1" route="ne" depart="136.07698691539537" />
<vehicle id="wn_206" type="type1" route="wn" depart="137.35396713621085" />
<vehicle id="sw_207" type="type1" route="sw" depart="138.00334065624529" />
<vehicle id="ns_208" type="type1" route="ns" depart="138.1799827603425" />
<vehicle id="es_209" type="type1" route="es" depart="139.6200488286502" />
<vehicle id="nw_210" type="type1" route="nw" depart="140.2056590490586" />
<vehicle id="we_211" type="type1" route="we" depart="140.849437796613" />
<vehicle id="sn_212" type="type1" route="sn" depart="142.345311663496" />
<vehicle id="nw_213" type="type1" route="nw" depart="142.68325408288945" />
<vehicle id="ew_214" type="type1" route="ew" depart="143.766323968074" />
<vehicle id="wn_215" type="type1" route="wn" depart="144.57591080603726" />
<vehicle id="se_216" type="type1" route="se" depart="145.30465024593514" />
<vehicle id="en_217" type="type1" route="en" depart="145.55300690565048" />
<vehicle id="ew_218" type="type1" route="ew" depart="145.76579336128825" />
<vehicle id="nw_219" type="type1" route="nw" depart="147.03631671103335" />
<vehicle id="ns_220" type="type1" route="ns" depart="147.6858174018295" />
<vehicle id="wn_221" type="type1" route="wn" depart="148.62427468254234" />
<vehicle id="en_222" type="type1" route="en" depart="148.78282777591463" />
<vehicle id="se_223" type="type1" route="se" depart="149.01649893677632" />
<vehicle id="en_224" type="type1" route="en" depart="149.51013260733134" />
<vehicle id="ns_225" type="type1" route="ns" depart="150.13023214341837" />
<vehicle id="we_226" type="type1" route="we" depart="154.1576587181252" />
<vehicle id="es_227" type="type1" route="es" depart="154.81187313444568" />
<vehicle id="sn_228" type="type1" route="sn" depart="155.16611482903937" />
<vehicle id="ws_229" type="type1" route="ws" depart="156.1529169112962" />
<vehicle id="ws_230" type="type1" route="ws" depart="156.7665583304536" />
<vehicle id="sw_231" type="type1" route="sw" depart="157.1881536396434" />
<vehicle id="ws_232" type="type1" route="ws" depart="157.20885645220494" />
<vehicle id="se_233" type="type1" route="se" depart="157.92856671681778" />
<vehicle id="sn_234" type="type1" route="sn" depart="159.1264948535802" />
<vehicle id="we_235" type="type1" route="we" depart="159.32269786173367" />
<vehicle id="ws_236" type="type1" route="ws" depart="159.78451545791748" />
<vehicle id="sw_237" type="type1" route="sw" depart="159.93103275351595" />
<vehicle id="en_238" type="type1" route="en" depart="160.962584199022" />
<vehicle id="es_239" type="type1" route="es" depart="161.86844986736563" />
<vehicle id="wn_240" type="type1" route="wn" depart="162.52027778460712" />
<vehicle id="ew_241" type="type1" route="ew" depart="162.5360704274809" />
<vehicle id="ns_242" type="type1" route="ns" depart="163.35912640454578" />
<vehicle id="we_243" type="type1" route="we" depart="163.75562031115822" />
<vehicle id="we_244" type="type1" route="we" depart="164.4554404178975" />
<vehicle id="ne_245" type="type1" route="ne" depart="165.41989005390144" />
<vehicle id="en_246" type="type1" route="en" depart="167.1315249717947" />
<vehicle id="se_247" type="type1" route="se" depart="169.31142488904322" />
<vehicle id="wn_248" type="type1" route="wn" depart="169.791635053258" />
<vehicle id="se_249" type="type1" route="se" depart="169.79694916503678" />
<vehicle id="se_250" type="type1" route="se" depart="170.26804000856126" />
<vehicle id="we_251" type="type1" route="we" depart="170.540426570212" />
<vehicle id="en_252" type="type1" route="en" depart="170.94436639721977" />
<vehicle id="ns_253" type="type1" route="ns" depart="172.32829451109814" />
<vehicle id="se_254" type="type1" route="se" depart="172.39785049536187" />
<vehicle id="ns_255" type="type1" route="ns" depart="174.2030343159953" />
<vehicle id="ne_256" type="type1" route="ne" depart="174.91758098717767" />
<vehicle id="ew_257" type="type1" route="ew" depart="175.0607869917182" />
<vehicle id="es_258" type="type1" route="es" depart="175.36194831202144" />
<vehicle id="ew_259" type="type1" route="ew" depart="176.01859601313552" />
<vehicle id="sn_260" type="type1" route="sn" depart="179.86152978353192" />
<vehicle id="se_261" type="type1" route="se" depart="180.69937989264855" />
<vehicle id="en_262" type="type1" route="en" depart="181.40565170820588" />
<vehicle id="we_263" type="type1" route="we" depart="181.69093663910488" />
<vehicle id="ws_264" type="type1" route="ws" depart="181.87499868799813" />
<vehicle id="es_265" type="type1" route="es" depart="181.8983862155719" />
<vehicle id="sn_266" type="type1" route="sn" depart="183.32165860429842" />
<vehicle id="ws_267" type="type1" route="ws" depart="183.7181188904275" />
<vehicle id="es_268" type="type1" route="es" depart="184.52269362761425" />
<vehicle id="sw_269" type="type1" route="sw" depart="185.2669019605707" />
<vehicle id="sn_270" type="type1" route="sn" depart="185.54826234369156" />
<vehicle id="sw_271" type="type1" route="sw" depart="185.66444960294965" />
<vehicle id="es_272" type="type1" route="es" depart="185.95990054005276" />
<vehicle id="se_273" type="type1" route="se" depart="186.39403819517293" />
<vehicle id="sn_274" type="type1" route="sn" depart="186.48392842881861" />
<vehicle id="we_275" type="type1" route="we" depart="186.97971246856454" />
<vehicle id="ew_276" type="type1" route="ew" depart="187.1566021386608" />
<vehicle id="ew_277" type="type1" route="ew" depart="187.53448370141635" />
<vehicle id="ws_278" type="type1" route="ws" depart="187.95762584906996" />
<vehicle id="es_279" type="type1" route="es" depart="189.96115768216814" />
<vehicle id="sn_280" type="type1" route="sn" depart="190.18773954043598" />
<vehicle id="sn_281" type="type1" route="sn" depart="190.60789039442326" />
<vehicle id="sn_282" type="type1" route="sn" depart="190.7066442379014" />
<vehicle id="wn_283" type="type1" route="wn" depart="191.53496485343382" />
<vehicle id="sn_284" type="type1" route="sn" depart="192.87613084030315" />
<vehicle id="ns_285" type="type1" route="ns" depart="193.22563559331442" />
<vehicle id="ws_286" type="type1" route="ws" depart="193.66853695881056" />
<vehicle id="sw_287" type="type1" route="sw" depart="193.8991776338358" />
<vehicle id="ws_288" type="type1" route="ws" depart="194.10580209438888" />
<vehicle id="ew_289" type="type1" route="ew" depart="194.8170458885073" />
<vehicle id="ws_290" type="type1" route="ws" depart="195.9653561003117" />
<vehicle id="se_291" type="type1" route="se" depart="196.05970842379276" />
<vehicle id="nw_292" type="type1" route="nw" depart="196.14073590476067" />
<vehicle id="wn_293" type="type1" route="wn" depart="196.37316626290246" />
<vehicle id="se_294" type="type1" route="se" depart="197.17562278530093" />
<vehicle id="ws_295" type="type1" route="ws" depart="198.3172284303008" />
<vehicle id="wn_296" type="type1" route="wn" depart="198.9951493870384" />
<vehicle id="ns_297" type="type1" route="ns" depart="200.38424082533493" />
<vehicle id="wn_298" type="type1" route="wn" depart="201.38146298121288" />
<vehicle id="ws_299" type="type1" route="ws" depart="203.2332264492993" />
<vehicle id="es_300" type="type1" route="es" depart="204.46663764261302" />
<vehicle id="ne_301" type="type1" route="ne" depart="204.46694559006625" />
<vehicle id="wn_302" type="type1" route="wn" depart="204.54970137737618" />
<vehicle id="ew_303" type="type1" route="ew" depart="205.0940569047532" />
<vehicle id="we_304" type="type1" route="we" depart="205.84891480410812" />
<vehicle id="ew_305" type="type1" route="ew" depart="206.00811134336482" />
<vehicle id="ns_306" type="type1" route="ns" depart="207.04387359357963" />
<vehicle id="ws_307" type="type1" route="ws" depart="207.6391930557774" />
<vehicle id="se_308" type="type1" route="se" depart="208.33123567658305" />
<vehicle id="wn_309" type="type1" route="wn" depart="209.12407306474026" />
<vehicle id="ew_310" type="type1" route="ew" depart="209.75545460233803" />
<vehicle id="es_311" type="type1" route="es" depart="209.88114101111057" />
<vehicle id="wn_312" type="type1" route="wn" depart="210.1586832243483" />
<vehicle id="nw_313" type="type1" route="nw" depart="210.77456973285385" />
<vehicle id="en_314" type="type1" route="en" depart="210.93163199965508" />
<vehicle id="nw_315" type="type1" route="nw" depart="211.1286446200022" />
<vehicle id="es_316" type="type1" route="es" depart="212.04439376708228" />
<vehicle id="ns_317" type="type1" route="ns" depart="212.53691673224031" />
<vehicle id="sw_318" type="type1" route="sw" depart="213.22304061062255" />
<vehicle id="ne_319" type="type1" route="ne" depart="213.51046038757127" />
<vehicle id="en_320" type="type1" route="en" depart="214.0877407666471" />
<vehicle id="wn_321" type="type1" route="wn" depart="217.01282783607374" />
<vehicle id="ws_322" type="type1" route="ws" depart="217.46011973387442" />
<vehicle id="ns_323" type="type1" route="ns" depart="218.13476738896776" />
<vehicle id="se_324" type="type1" route="se" depart="218.37036626814574" />
<vehicle id="en_325" type="type1" route="en" depart="218.65414078599096" />
<vehicle id="wn_326" type="type1" route="wn" depart="219.51693300006397" />
<vehicle id="wn_327" type="type1" route="wn" depart="220.33538280693938" />
<vehicle id="sn_328" type="type1" route="sn" depart="221.97041959597746" />
<vehicle id="wn_329" type="type1" route="wn" depart="222.68978136361466" />
<vehicle id="ne_330" type="type1" route="ne" depart="223.66591240458513" />
<vehicle id="se_331" type="type1" route="se" depart="225.38694302977194" />
<vehicle id="en_332" type="type1" route="en" depart="225.51501730961283" />
<vehicle id="ew_333" type="type1" route="ew" depart="225.66717315087237" />
<vehicle id="wn_334" type="type1" route="wn" depart="226.34887921811713" />
<vehicle id="en_335" type="type1" route="en" depart="227.64400047897996" />
<vehicle id="sw_336" type="type1" route="sw" depart="227.8786968626968" />
<vehicle id="wn_337" type="type1" route="wn" depart="229.24568001897035" />
<vehicle id="ew_338" type="type1" route="ew" depart="229.718096258404" />
<vehicle id="ne_339" type="type1" route="ne" depart="229.9699550109318" />
<vehicle id="we_340" type="type1" route="we" depart="230.10060217263057" />
<vehicle id="ws_341" type="type1" route="ws" depart="230.33363423950004" />
<vehicle id="wn_342" type="type1" route="wn" depart="232.36307856341412" />
<vehicle id="ne_343" type="type1" route="ne" depart="235.2745569156305" />
<vehicle id="ne_344" type="type1" route="ne" depart="235.43002760580265" />
<vehicle id="wn_345" type="type1" route="wn" depart="238.2192947446282" />
<vehicle id="ew_346" type="type1" route="ew" depart="238.66859538746135" />
<vehicle id="se_347" type="type1" route="se" depart="239.17804169021232" />
<vehicle id="ew_348" type="type1" route="ew" depart="239.62316303230347" />
<vehicle id="wn_349" type="type1" route="wn" depart="239.99240902387365" />
<vehicle id="we_350" type="type1" route="we" depart="240.59900610920042" />
<vehicle id="nw_351" type="type1" route="nw" depart="242.21598592353283" />
<vehicle id="nw_352" type="type1" route="nw" depart="242.35517878002835" />
<vehicle id="ns_353" type="type1" route="ns" depart="243.30142166344368" />
<vehicle id="wn_354" type="type1" route="wn" depart="244.24162523040476" />
<vehicle id="ew_355" type="type1" route="ew" depart="247.19648089123896" />
<vehicle id="nw_356" type="type1" route="nw" depart="247.2442743490232" />
<vehicle id="ne_357" type="type1" route="ne" depart="247.432244466874" />
<vehicle id="ws_358" type="type1" route="ws" depart="247.60900919496805" />
<vehicle id="sw_359" type="type1" route="sw" depart="247.6955961361454" />
<vehicle id="sw_360" type="type1" route="sw" depart="250.24071394582015" />
<vehicle id="ew_361" type="type1" route="ew" depart="251.24235243890993" />
<vehicle id="ns_362" type="type1" route="ns" depart="251.61802909324308" />
<vehicle id="se_363" type="type1" route="se" depart="251.6901572428296" />
<vehicle id="sn_364" type="type1" route="sn" depart="252.97994319916697" />
<vehicle id="wn_365" type="type1" route="wn" depart="253.0476722335351" />