<routes>
            <vType id="type1" accel="0.8" decel="4.5" sigma="0.5" length="5" maxSpeed="70"/>
            <vType id="rescue" vClass="emergency" speedFactor="1.5" guiShape="emergency">
                <param key="has.bluelight.device" value="true"/>
            </vType>
            <route id="ne" edges="ni eo"/>
            <route id="ns" edges="ni so"/>
            <route id="nw" edges="ni wo"/>
            <route id="en" edges="ei no"/>
            <route id="es" edges="ei so"/>
            <route id="ew" edges="ei wo"/>
            <route id="sn" edges="si no"/>
            <route id="se" edges="si eo"/>
            <route id="sw" edges="si wo"/>
            <route id="wn" edges="wi no"/>
            <route id="we" edges="wi eo"/>
            <route id="ws" edges="wi so"/>
        
            <personFlow id="p_ew" begin="0" end="400" period="50">
                <walk route="ew"/>
            </personFlow>
                         
            <personFlow id="p_ns" begin="0" end="400" period="50">
                <walk route="ns"/>
            </personFlow>
                         
            <personFlow id="p_sn" begin="0" end="400" period="50">
                <walk route="sn"/>
            </personFlow>
                         
            <personFlow id="p_we" begin="0" end="400" period="50">
                <walk route="we"/>
            </personFlow>
                         <vehicle id="type1_1" type="type1" route="sn" depart="2.2061142439334023" />
<vehicle id="type1_2" type="type1" route="wn" depart="4.753107204849201" />
<vehicle id="type1_3" type="type1" route="es" depart="9.605037283672342" />
<vehicle id="type1_4" type="type1" route="we" depart="9.677585801092047" />
<vehicle id="type1_5" type="type1" route="en" depart="12.8555034206817" />
<vehicle id="type1_6" type="type1" route="se" depart="14.70208599835609" />
<vehicle id="type1_7" type="type1" route="sn" depart="14.708357139466559" />
<vehicle id="type1_8" type="type1" route="ws" depart="14.893234826083537" />
<vehicle id="type1_9" type="type1" route="nw" depart="16.43235311731846" />
<vehicle id="type1_10" type="type1" route="nw" depart="18.737518343245622" />
<vehicle id="type1_11" type="type1" route="nw" depart="19.30666093675643" />
<vehicle id="type1_12" type="type1" route="we" depart="20.268167905070296" />
<vehicle id="type1_13" type="type1" route="ew" depart="21.093804759531757" />
<vehicle id="type1_14" type="type1" route="es" depart="21.483021861716054" />
<vehicle id="type1_15" type="type1" route="we" depart="22.381818677275408" />
<vehicle id="type1_16" type="type1" route="es" depart="25.938532838519546" />
<vehicle id="type1_17" type="type1" route="we" depart="26.20895090215567" />
<vehicle id="type1_18" type="type1" route="we" depart="26.861025273874876" />
<vehicle id="type1_19" type="type1" route="es" depart="29.593427524394176" />
<vehicle id="type1_20" type="type1" route="sw" depart="30.782285149011518" />
<vehicle id="type1_21" type="type1" route="wn" depart="32.15828274752067" />
<vehicle id="type1_22" type="type1" route="en" depart="33.57553511335025" />
<vehicle id="type1_23" type="type1" route="en" depart="33.72764394014385" />
<vehicle id="type1_24" type="type1" route="es" depart="35.177541769544625" />
<vehicle id="type1_25" type="type1" route="en" depart="38.37306661629514" />
<vehicle id="type1_26" type="type1" route="ew" depart="39.82726664039707" />
<vehicle id="type1_27" type="type1" route="en" depart="40.22135200420527" />
<vehicle id="type1_28" type="type1" route="en" depart="41.138153414510796" />
<vehicle id="type1_29" type="type1" route="sw" depart="42.01861121357586" />
<vehicle id="type1_30" type="type1" route="ws" depart="42.62712790461181" />
<vehicle id="type1_31" type="type1" route="sw" depart="42.711495952071346" />
<vehicle id="type1_32" type="type1" route="ns" depart="45.49649822092814" />
<vehicle id="type1_33" type="type1" route="sw" depart="48.16202603041622" />
<vehicle id="type1_34" type="type1" route="we" depart="48.769536369352885" />
<vehicle id="type1_35" type="type1" route="es" depart="49.472889452262244" />
<vehicle id="type1_36" type="type1" route="we" depart="50.181622361973915" />
<vehicle id="type1_37" type="type1" route="es" depart="54.83393760697098" />
<vehicle id="type1_38" type="type1" route="we" depart="59.43795147086099" />
<vehicle id="type1_39" type="type1" route="ne" depart="60.11051277323927" />
<vehicle id="type1_40" type="type1" route="nw" depart="61.95091660187311" />
<vehicle id="type1_41" type="type1" route="ws" depart="62.16660407310968" />
<vehicle id="type1_42" type="type1" route="sn" depart="62.5354119537528" />
<vehicle id="type1_43" type="type1" route="nw" depart="62.7781761759606" />
<vehicle id="type1_44" type="type1" route="se" depart="64.94567722584904" />
<vehicle id="type1_45" type="type1" route="sw" depart="65.93753568171597" />
<vehicle id="type1_46" type="type1" route="ns" depart="66.02724135072299" />
<vehicle id="type1_47" type="type1" route="es" depart="71.3777800538532" />
<vehicle id="type1_48" type="type1" route="we" depart="72.48298279117371" />
<vehicle id="type1_49" type="type1" route="we" depart="73.58462061813799" />
<vehicle id="type1_50" type="type1" route="wn" depart="75.67395050583781" />
<vehicle id="type1_51" type="type1" route="es" depart="77.17415626922842" />
<vehicle id="type1_52" type="type1" route="wn" depart="78.8608759492706" />
<vehicle id="type1_53" type="type1" route="ws" depart="79.40014042886135" />
<vehicle id="type1_54" type="type1" route="nw" depart="81.87396524479769" />
<vehicle id="type1_55" type="type1" route="ws" depart="82.77018546026682" />
<vehicle id="type1_56" type="type1" route="en" depart="86.42715117109569" />
<vehicle id="type1_57" type="type1" route="sw" depart="92.43431137926486" />
<vehicle id="type1_58" type="type1" route="wn" depart="93.41562035225215" />
<vehicle id="type1_59" type="type1" route="ws" depart="97.84646119789366" />
<vehicle id="type1_60" type="type1" route="wn" depart="99.13512617877143" />
<vehicle id="type1_61" type="type1" route="wn" depart="105.11315447026756" />
<vehicle id="type1_62" type="type1" route="en" depart="105.12900621247806" />
<vehicle id="type1_63" type="type1" route="we" depart="108.58566142307862" />
<vehicle id="type1_64" type="type1" route="we" depart="111.5033129938348" />
<vehicle id="type1_65" type="type1" route="sn" depart="111.6376794367122" />
<vehicle id="type1_66" type="type1" route="en" depart="111.64950234646963" />
<vehicle id="type1_67" type="type1" route="nw" depart="117.203800291107" />
<vehicle id="type1_68" type="type1" route="we" depart="120.94619495067353" />
<vehicle id="type1_69" type="type1" route="sn" depart="123.66831474659232" />
<vehicle id="type1_70" type="type1" route="wn" depart="124.3503540978718" />
<vehicle id="type1_71" type="type1" route="en" depart="125.15682187109286" />
<vehicle id="type1_72" type="type1" route="sw" depart="126.10687796735664" />
<vehicle id="type1_73" type="type1" route="en" depart="127.78449572017516" />
<vehicle id="type1_74" type="type1" route="sw" depart="128.4153026088743" />
<vehicle id="type1_75" type="type1" route="ns" depart="131.06916757723278" />
<vehicle id="type1_76" type="type1" route="sw" depart="132.50368221617742" />
<vehicle id="type1_77" type="type1" route="ew" depart="133.6488834963267" />
<vehicle id="type1_78" type="type1" route="sw" depart="135.29459015544649" />
<vehicle id="type1_79" type="type1" route="sw" depart="136.56725466882847" />
<vehicle id="type1_80" type="type1" route="ws" depart="138.2217701175636" />
<vehicle id="type1_81" type="type1" route="ws" depart="139.93215110624666" />
<vehicle id="type1_82" type="type1" route="sn" depart="141.2924949182509" />
<vehicle id="type1_83" type="type1" route="nw" depart="145.07137354339739" />
<vehicle id="type1_84" type="type1" route="wn" depart="149.39652069870655" />
<vehicle id="type1_85" type="type1" route="ws" depart="149.87210907064497" />
<vehicle id="type1_86" type="type1" route="es" depart="151.11621284449313" />
<vehicle id="type1_87" type="type1" route="ws" depart="151.30305243393713" />
<vehicle id="type1_88" type="type1" route="wn" depart="151.65754273646942" />
<vehicle id="type1_89" type="type1" route="es" depart="157.35096000262882" />
<vehicle id="type1_90" type="type1" route="sn" depart="158.44228718241885" />
<vehicle id="type1_91" type="type1" route="se" depart="161.11523304070838" />
<vehicle id="type1_92" type="type1" route="sw" depart="161.81251637421278" />
<vehicle id="type1_93" type="type1" route="ne" depart="164.75569229692562" />
<vehicle id="type1_94" type="type1" route="wn" depart="166.52145849236334" />
<vehicle id="type1_95" type="type1" route="nw" depart="169.08102014328972" />
<vehicle id="type1_96" type="type1" route="ws" depart="169.749483162946" />
<vehicle id="type1_97" type="type1" route="we" depart="170.70743568763564" />
<vehicle id="type1_98" type="type1" route="se" depart="171.79710209455757" />
<vehicle id="type1_99" type="type1" route="sw" depart="175.6991637627188" />
<vehicle id="type1_100" type="type1" route="nw" depart="182.26281290772835" />
<vehicle id="type1_101" type="type1" route="es" depart="183.38945395119956" />
<vehicle id="type1_102" type="type1" route="ws" depart="183.63721673394616" />
<vehicle id="type1_103" type="type1" route="we" depart="184.86172639320597" />
<vehicle id="type1_104" type="type1" route="wn" depart="188.63747275717142" />
<vehicle id="type1_105" type="type1" route="es" depart="190.7063696995766" />
<vehicle id="type1_106" type="type1" route="se" depart="195.27423314104382" />
<vehicle id="type1_107" type="type1" route="se" depart="198.10404748897727" />
<vehicle id="type1_108" type="type1" route="en" depart="200.890851256781" />
<vehicle id="type1_109" type="type1" route="se" depart="201.42399821347013" />
<vehicle id="type1_110" type="type1" route="sw" depart="205.12250949528854" />
<vehicle id="type1_111" type="type1" route="es" depart="207.08393937724097" />
<vehicle id="type1_112" type="type1" route="ew" depart="213.59293890373473" />
<vehicle id="type1_113" type="type1" route="nw" depart="214.97556353622352" />
<vehicle id="type1_114" type="type1" route="sn" depart="215.6601151090556" />
<vehicle id="type1_115" type="type1" route="wn" depart="215.76589263536852" />
<vehicle id="emv_1" type="rescue" route="se" depart="217.7896328050218" />
<vehicle id="type1_116" type="type1" route="es" depart="218.33557777100646" />
<vehicle id="type1_117" type="type1" route="we" depart="221.21700331160642" />
<vehicle id="type1_118" type="type1" route="wn" depart="222.0150827657175" />
<vehicle id="type1_119" type="type1" route="ne" depart="222.93541421913184" />
<vehicle id="type1_120" type="type1" route="nw" depart="223.44700827587428" />
<vehicle id="type1_121" type="type1" route="es" depart="223.50369885238848" />
<vehicle id="type1_122" type="type1" route="sn" depart="230.84285236849723" />
<vehicle id="type1_123" type="type1" route="sw" depart="236.5264884697148" />
<vehicle id="type1_124" type="type1" route="we" depart="236.74907690202477" />
<vehicle id="type1_125" type="type1" route="sw" depart="240.16915523450962" />
<vehicle id="type1_126" type="type1" route="wn" depart="241.87170018237404" />
<vehicle id="emv_2" type="rescue" route="sn" depart="242.0435595083521" />
<vehicle id="type1_127" type="type1" route="wn" depart="242.25057000239423" />
<vehicle id="type1_128" type="type1" route="sw" depart="242.7516313279524" />
<vehicle id="type1_129" type="type1" route="ws" depart="248.77120886678554" />
<vehicle id="type1_130" type="type1" route="sw" depart="251.50289480682483" />
<vehicle id="type1_131" type="type1" route="ew" depart="253.34708585466416" />
<vehicle id="type1_132" type="type1" route="se" depart="253.81805914178324" />
<vehicle id="type1_133" type="type1" route="sw" depart="253.91621565586584" />
<vehicle id="type1_134" type="type1" route="ns" depart="263.8206080152683" />
<vehicle id="type1_135" type="type1" route="se" depart="264.01127712669876" />
<vehicle id="type1_136" type="type1" route="se" depart="264.68540674531266" />
<vehicle id="type1_137" type="type1" route="wn" depart="265.84890878318015" />
<vehicle id="type1_138" type="type1" route="nw" depart="268.02708536849474" />
<vehicle id="type1_139" type="type1" route="en" depart="270.6792661161505" />
<vehicle id="type1_140" type="type1" route="sn" depart="273.07228003989405" />
<vehicle id="type1_141" type="type1" route="ws" depart="273.2376924003348" />
<vehicle id="type1_142" type="type1" route="sw" depart="273.58124629853234" />
<vehicle id="type1_143" type="type1" route="se" depart="276.3239064885976" />
<vehicle id="type1_144" type="type1" route="en" depart="277.8707988439941" />
<vehicle id="type1_145" type="type1" route="sw" depart="278.82293315446265" />
<vehicle id="type1_146" type="type1" route="es" depart="280.3620263202224" />
<vehicle id="type1_147" type="type1" route="ne" depart="280.71398615489477" />
<vehicle id="type1_148" type="type1" route="nw" depart="281.55954155287213" />
<vehicle id="type1_149" type="type1" route="ws" depart="283.0595669928422" />
<vehicle id="type1_150" type="type1" route="wn" depart="284.3646479503328" />
<vehicle id="type1_151" type="type1" route="we" depart="284.689704100665" />
<vehicle id="emv_3" type="rescue" route="ew" depart="293.9821176203113" />
<vehicle id="type1_152" type="type1" route="nw" depart="301.0460643215117" />
<vehicle id="type1_153" type="type1" route="nw" depart="301.42762035001266" />
<vehicle id="type1_154" type="type1" route="nw" depart="302.809921978304" />
<vehicle id="type1_155" type="type1" route="ws" depart="303.70919052521486" />
<vehicle id="type1_156" type="type1" route="ns" depart="306.9684293318662" />
<vehicle id="type1_157" type="type1" route="ws" depart="311.77582075892235" />
<vehicle id="type1_158" type="type1" route="nw" depart="313.56779795534595" />
<vehicle id="type1_159" type="type1" route="nw" depart="315.45098294999366" />
<vehicle id="type1_160" type="type1" route="we" depart="319.4951572464532" />
<vehicle id="type1_161" type="type1" route="ne" depart="322.3495196639799" />
<vehicle id="type1_162" type="type1" route="ws" depart="324.03172000850424" />
<vehicle id="type1_163" type="type1" route="ne" depart="324.28755988628876" />
<vehicle id="type1_164" type="type1" route="ns" depart="329.32700896944334" />
<vehicle id="type1_165" type="type1" route="ne" depart="329.4027170630775" />
<vehicle id="type1_166" type="type1" route="nw" depart="329.97663261234663" />
<vehicle id="type1_167" type="type1" route="ns" depart="332.58203173206346" />
<vehicle id="type1_168" type="type1" route="se" depart="334.23313933005505" />
<vehicle id="type1_169" type="type1" route="we" depart="335.7302509043476" />
<vehicle id="type1_170" type="type1" route="we" depart="339.3053572408825" />
<vehicle id="type1_171" type="type1" route="we" depart="342.1405483677111" />
<vehicle id="type1_172" type="type1" route="sw" depart="343.5659467666571" />
<vehicle id="type1_173" type="type1" route="ne" depart="344.03876877005933" />
<vehicle id="type1_174" type="type1" route="ne" depart="344.06561354379465" />
<vehicle id="type1_175" type="type1" route="sn" depart="346.2895413164117" />
<vehicle id="type1_176" type="type1" route="en" depart="349.5315968299218" />
<vehicle id="type1_177" type="type1" route="se" depart="352.88595986434007" />
<vehicle id="type1_178" type="type1" route="es" depart="353.22064596379545" />
<vehicle id="type1_179" type="type1" route="ew" depart="356.15636036701045" />
<vehicle id="type1_180" type="type1" route="sw" depart="358.4310567758359" />
<vehicle id="type1_181" type="type1" route="ws" depart="358.6327836412273" />
<vehicle id="type1_182" type="type1" route="sw" depart="360.21507020142144" />
<vehicle id="type1_183" type="type1" route="ne" depart="361.29950054283967" />
<vehicle id="type1_184" type="type1" route="wn" depart="362.3944086255898" />
<vehicle id="type1_185" type="type1" route="wn" depart="363.7892103408426" />
<vehicle id="type1_186" type="type1" route="wn" depart="363.8650831410811" />
<vehicle id="type1_187" type="type1" route="nw" depart="367.99627034025775" />
<vehicle id="type1_188" type="type1" route="se" depart="368.08625714735643" />
<vehicle id="type1_189" type="type1" route="ws" depart="372.79004190292886" />
<vehicle id="type1_190" type="type1" route="nw" depart="375.3387287791544" />
<vehicle id="type1_191" type="type1" route="ne" depart="380.12397753253964" />
<vehicle id="type1_192" type="type1" route="es" depart="380.8697234108986" />
<vehicle id="type1_193" type="type1" route="en" depart="381.9757211259812" />
<vehicle id="type1_194" type="type1" route="ws" depart="384.2743635743668" />
<vehicle id="type1_195" type="type1" route="ns" depart="384.60921972292033" />
<vehicle id="type1_196" type="type1" route="es" depart="385.4829692677215" />
<vehicle id="type1_197" type="type1" route="sn" depart="389.04427457558427" />
<vehicle id="type1_198" type="type1" route="ew" depart="389.4626140617782" />
<vehicle id="type1_199" type="type1" route="ws" depart="391.87438591198935" />
<vehicle id="type1_200" type="type1" route="ne" depart="394.8792334031527" />
<vehicle id="type1_201" type="type1" route="wn" depart="398.30855133986483" />
<vehicle id="type1_202" type="type1" route="ew" depart="398.3603259289574" />
<vehicle id="type1_203" type="type1" route="ew" depart="405.3434866314126" />
<vehicle id="type1_204" type="type1" route="wn" depart="406.2473068429661" />
<vehicle id="type1_205" type="type1" route="en" depart="406.25856595617694" />
<vehicle id="type1_206" type="type1" route="sn" depart="407.6267646068671" />
<vehicle id="type1_207" type="type1" route="se" depart="412.2051447055429" />
<vehicle id="type1_208" type="type1" route="se" depart="413.2714263156928" />
<vehicle id="type1_209" type="type1" route="es" depart="414.6047373426137" />
<vehicle id="type1_210" type="type1" route="en" depart="417.5607870032549" />
<vehicle id="type1_211" type="type1" route="ws" depart="419.91166154410575" />
<vehicle id="type1_212" type="type1" route="ew" depart="420.3739526352788" />
<vehicle id="type1_213" type="type1" route="sn" depart="421.3273345386076" />
<vehicle id="type1_214" type="type1" route="sn" depart="421.44039270673835" />
<vehicle id="type1_215" type="type1" route="ne" depart="422.9186238706786" />
<vehicle id="type1_216" type="type1" route="wn" depart="425.93004853336896" />
<vehicle id="type1_217" type="type1" route="ws" depart="427.3058146785668" />
<vehicle id="type1_218" type="type1" route="es" depart="427.88920936455776" />
<vehicle id="type1_219" type="type1" route="es" depart="428.68739287444663" />
<vehicle id="type1_220" type="type1" route="se" depart="429.7398263276284" />
<vehicle id="type1_221" type="type1" route="ns" depart="431.114489571411" />
<vehicle id="type1_222" type="type1" route="se" depart="437.5967871489892" />
<vehicle id="type1_223" type="type1" route="ns" depart="441.7891672726949" />
<vehicle id="type1_224" type="type1" route="sn" depart="442.8996315021" />
<vehicle id="type1_225" type="type1" route="ne" depart="444.99855827170376" />
<vehicle id="type1_226" type="type1" route="ns" depart="447.5270485045359" />
<vehicle id="type1_227" type="type1" route="ne" depart="449.75946349938647" />
<vehicle id="type1_228" type="type1" route="ws" depart="449.9351539941976" />
<vehicle id="type1_229" type="type1" route="nw" depart="452.7327512480396" />
<vehicle id="type1_230" type="type1" route="ns" depart="452.9299424689606" />
<vehicle id="type1_231" type="type1" route="we" depart="453.90199160838915" />
<vehicle id="type1_232" type="type1" route="ns" depart="455.95049809890446" />
<vehicle id="type1_233" type="type1" route="ws" depart="456.4821044179237" />
<vehicle id="type1_234" type="type1" route="ew" depart="461.1811018386906" />
<vehicle id="type1_235" type="type1" route="es" depart="464.46273018474017" />
<vehicle id="type1_236" type="type1" route="se" depart="465.38380277413677" />
<vehicle id="type1_237" type="type1" route="ne" depart="469.7249124804318" />
<vehicle id="type1_238" type="type1" route="es" depart="476.28072348264266" />
<vehicle id="type1_239" type="type1" route="en" depart="479.9429045561286" />
<vehicle id="type1_240" type="type1" route="en" depart="484.77485176233813" />
<vehicle id="type1_241" type="type1" route="ne" depart="487.5791263713653" />
<vehicle id="type1_242" type="type1" route="ns" depart="492.2539918472068" />
<vehicle id="type1_243" type="type1" route="wn" depart="492.45428836419666" />
<vehicle id="type1_244" type="type1" route="wn" depart="495.2821848244391" />
<vehicle id="type1_245" type="type1" route="en" depart="498.67032363395464" />
<vehicle id="type1_246" type="type1" route="es" depart="499.14184975409347" />
<vehicle id="type1_247" type="type1" route="ws" depart="500.7090311776594" />
<vehicle id="type1_248" type="type1" route="sn" depart="501.3520353317008" />
<vehicle id="type1_249" type="type1" route="ns" depart="502.3886213339042" />
<vehicle id="type1_250" type="type1" route="sn" depart="505.4635409995135" />
<vehicle id="type1_251" type="type1" route="sw" depart="505.8756706905089" />
<vehicle id="type1_252" type="type1" route="ne" depart="507.19208438573946" />
<vehicle id="type1_253" type="type1" route="ne" depart="507.49671201660834" />
<vehicle id="type1_254" type="type1" route="sn" depart="508.2862141119754" />
<vehicle id="type1_255" type="type1" route="se" depart="510.03799969165703" />
<vehicle id="type1_256" type="type1" route="sw" depart="513.087251377744" />
<vehicle id="type1_257" type="type1" route="we" depart="517.991872029107" />
<vehicle id="type1_258" type="type1" route="se" depart="518.432442312727" />
<vehicle id="type1_259" type="type1" route="wn" depart="524.7142154315324" />
<vehicle id="type1_260" type="type1" route="ns" depart="524.8513396730938" />
<vehicle id="type1_261" type="type1" route="sn" depart="528.8150116888255" />
<vehicle id="type1_262" type="type1" route="se" depart="529.6128418599305" />
<vehicle id="emv_4" type="rescue" route="en" depart="532.6302871000997" />
<vehicle id="type1_263" type="type1" route="we" depart="533.6914662120754" />
<vehicle id="type1_264" type="type1" route="we" depart="534.8009617389398" />
<vehicle id="type1_265" type="type1" route="ws" depart="535.8747036606212" />
<vehicle id="type1_266" type="type1" route="ns" depart="536.5466577596335" />
<vehicle id="type1_267" type="type1" route="ne" depart="537.4491700554227" />
<vehicle id="type1_268" type="type1" route="ne" depart="537.8126542368636" />
<vehicle id="type1_269" type="type1" route="es" depart="538.9968509709075" />
<vehicle id="type1_270" type="type1" route="ne" depart="541.1782816439487" />
<vehicle id="type1_271" type="type1" route="en" depart="542.304316495891" />
<vehicle id="emv_5" type="rescue" route="ew" depart="544.1210665407424" />
<vehicle id="type1_272" type="type1" route="sn" depart="545.574961712676" />
<vehicle id="type1_273" type="type1" route="ws" depart="548.741566901626" />
<vehicle id="type1_274" type="type1" route="ns" depart="549.3559090652802" />
<vehicle id="type1_275" type="type1" route="sw" depart="550.778953293812" />
<vehicle id="type1_276" type="type1" route="ne" depart="558.1545762205216" />
<vehicle id="type1_277" type="type1" route="wn" depart="560.2217243291188" />
<vehicle id="type1_278" type="type1" route="we" depart="560.8345568193739" />
<vehicle id="type1_279" type="type1" route="es" depart="563.4335795445098" />
<vehicle id="type1_280" type="type1" route="se" depart="566.8952266647087" />
<vehicle id="type1_281" type="type1" route="ws" depart="568.6870389814817" />
<vehicle id="type1_282" type="type1" route="wn" depart="574.9347215976777" />
<vehicle id="type1_283" type="type1" route="nw" depart="581.7211897675916" />
<vehicle id="type1_284" type="type1" route="en" depart="582.7332931713111" />
<vehicle id="type1_285" type="type1" route="we" depart="583.3912175601752" />
<vehicle id="type1_286" type="type1" route="we" depart="590.0388587377558" />
<vehicle id="type1_287" type="type1" route="ew" depart="594.6381468927184" />
<vehicle id="type1_288" type="type1" route="es" depart="596.2452403095537" />
<vehicle id="type1_289" type="type1" route="we" depart="596.814712750304" />
<vehicle id="type1_290" type="type1" route="ws" depart="599.2876623598482" />
<vehicle id="type1_291" type="type1" route="sw" depart="599.7580127131671" />
<vehicle id="type1_292" type="type1" route="ew" depart="599.8945424794963" />
<vehicle id="type1_293" type="type1" route="wn" depart="611.7736483925217" />
<vehicle id="type1_294" type="type1" route="en" depart="612.0442376061305" />
<vehicle id="type1_295" type="type1" route="se" depart="612.083294216336" />
<vehicle id="type1_296" type="type1" route="sw" depart="621.7289127619034" />
<vehicle id="type1_297" type="type1" route="we" depart="623.5735070343545" />
<vehicle id="type1_298" type="type1" route="en" depart="625.984992590818" />
<vehicle id="type1_299" type="type1" route="es" depart="626.2549334933381" />
<vehicle id="type1_300" type="type1" route="se" depart="634.201476636049" />
<vehicle id="type1_301" type="type1" route="nw" depart="634.2484667008067" />
<vehicle id="type1_302" type="type1" route="we" depart="636.590572698809" />
<vehicle id="type1_303" type="type1" route="nw" depart="637.8137373787573" />
<vehicle id="type1_304" type="type1" route="sw" depart="638.9864962768845" />
<vehicle id="type1_305" type="type1" route="ew" depart="639.2076433227309" />
<vehicle id="type1_306" type="type1" route="en" depart="641.0394435186843" />
<vehicle id="type1_307" type="type1" route="wn" depart="642.397103378382" />
<vehicle id="type1_308" type="type1" route="nw" depart="642.5678851766783" />
<vehicle id="type1_309" type="type1" route="se" depart="643.5366377392985" />
<vehicle id="type1_310" type="type1" route="sw" depart="645.0091025397561" />
<vehicle id="type1_311" type="type1" route="ws" depart="651.1396903587183" />
<vehicle id="type1_312" type="type1" route="nw" depart="652.5005725208348" />
<vehicle id="type1_313" type="type1" route="se" depart="656.446196905419" />
<vehicle id="type1_314" type="type1" route="en" depart="656.7990563322106" />
<vehicle id="emv_6" type="rescue" route="nw" depart="656.9590051809959" />
<vehicle id="type1_315" type="type1" route="sw" depart="658.1733206229339" />
<vehicle id="type1_316" type="type1" route="sn" depart="666.7085300418934" />
<vehicle id="type1_317" type="type1" route="sw" depart="667.7023723754388" />
<vehicle id="type1_318" type="type1" route="sw" depart="668.4570239243367" />
<vehicle id="type1_319" type="type1" route="wn" depart="668.8331045485129" />
<vehicle id="type1_320" type="type1" route="ns" depart="669.774027097053" />
<vehicle id="type1_321" type="type1" route="se" depart="669.7935664294522" />
<vehicle id="type1_322" type="type1" route="ne" depart="672.6271144689941" />
<vehicle id="type1_323" type="type1" route="se" depart="673.4504891852605" />
<vehicle id="type1_324" type="type1" route="ws" depart="673.5810629234634" />
<vehicle id="type1_325" type="type1" route="ne" depart="677.5952436832873" />
<vehicle id="type1_326" type="type1" route="ew" depart="679.7626384693405" />
<vehicle id="type1_327" type="type1" route="we" depart="680.2166352459111" />
<vehicle id="type1_328" type="type1" route="es" depart="682.2708972761526" />
<vehicle id="type1_329" type="type1" route="sn" depart="686.7905699218757" />
<vehicle id="type1_330" type="type1" route="ws" depart="688.6479089840401" />
<vehicle id="type1_331" type="type1" route="sn" depart="695.7338932356857" />
<vehicle id="type1_332" type="type1" route="se" depart="696.1380804085107" />
<vehicle id="type1_333" type="type1" route="ne" depart="696.6313686080099" />
<vehicle id="type1_334" type="type1" route="sw" depart="697.4034248467237" />
<vehicle id="type1_335" type="type1" route="se" depart="697.5290394569727" />
<vehicle id="type1_336" type="type1" route="es" depart="697.5449348271753" />
<vehicle id="type1_337" type="type1" route="ew" depart="703.4140253322444" />
<vehicle id="type1_338" type="type1" route="ne" depart="707.5755482204951" />
<vehicle id="type1_339" type="type1" route="we" depart="707.6586974454042" />
<vehicle id="type1_340" type="type1" route="ns" depart="708.214789601935" />
<vehicle id="type1_341" type="type1" route="wn" depart="708.5409607033928" />
<vehicle id="type1_342" type="type1" route="sn" depart="708.7904206768812" />
<vehicle id="type1_343" type="type1" route="es" depart="708.8125508712767" />
<vehicle id="type1_344" type="type1" route="nw" depart="709.2873971404525" />
<vehicle id="type1_345" type="type1" route="sn" depart="709.6953111015571" />
<vehicle id="type1_346" type="type1" route="se" depart="712.0910556892408" />
<vehicle id="type1_347" type="type1" route="ns" depart="713.1183222194176" />
<vehicle id="type1_348" type="type1" route="es" depart="713.4480929327086" />
<vehicle id="type1_349" type="type1" route="ew" depart="714.0633737000504" />
<vehicle id="type1_350" type="type1" route="ns" depart="719.5104641197508" />
<vehicle id="type1_351" type="type1" route="we" depart="720.5810340520919" />
<vehicle id="type1_352" type="type1" route="sw" depart="723.2696530886438" />
<vehicle id="type1_353" type="type1" route="ws" depart="724.0566309694808" />
<vehicle id="type1_354" type="type1" route="ne" depart="726.9068818700446" />
<vehicle id="type1_355" type="type1" route="ns" depart="728.9935432664723" />
<vehicle id="type1_356" type="type1" route="we" depart="729.471434819384" />
<vehicle id="type1_357" type="type1" route="sn" depart="730.9719371960224" />
<vehicle id="type1_358" type="type1" route="nw" depart="731.4522441144771" />
<vehicle id="type1_359" type="type1" route="ne" depart="732.9727370248784" />
<vehicle id="type1_360" type="type1" route="ns" depart="737.5213690178803" />