<routes>
            <vType id="type1" accel="0.8" decel="4.5" sigma="0.5" length="5" maxSpeed="70"/>
            <vType id="rescue" vClass="emergency" speedFactor="1.5" guiShape="emergency">
                <param key="has.bluelight.device" value="true"/>
            </vType>
            <route id="ne" edges="ni eo"/>
            <route id="ns" edges="ni so"/>
            <route id="nw" edges="ni wo"/>
            <route id="en" edges="ei no"/>
            <route id="es" edges="ei so"/>
            <route id="ew" edges="ei wo"/>
            <route id="sn" edges="si no"/>
            <route id="se" edges="si eo"/>
            <route id="sw" edges="si wo"/>
            <route id="wn" edges="wi no"/>
            <route id="we" edges="wi eo"/>
            <route id="ws" edges="wi so"/>
        <vehicle id="type1_1" type="type1" route="wn" depart="1.157532039488425" />
<vehicle id="type1_2" type="type1" route="sn" depart="2.0266687843093356" />
<vehicle id="type1_3" type="type1" route="en" depart="2.247066475567482" />
<vehicle id="type1_4" type="type1" route="sn" depart="2.3272433289328944" />
<vehicle id="type1_5" type="type1" route="we" depart="4.038197157280875" />
<vehicle id="type1_6" type="type1" route="ne" depart="4.066188532302495" />
<vehicle id="type1_7" type="type1" route="ew" depart="6.879634946498975" />
<vehicle id="type1_8" type="type1" route="ws" depart="7.14954108729226" />
<vehicle id="type1_9" type="type1" route="ne" depart="8.557015855120476" />
<vehicle id="type1_10" type="type1" route="nw" depart="9.206439787170712" />
<vehicle id="type1_11" type="type1" route="se" depart="9.442516651237204" />
<vehicle id="type1_12" type="type1" route="we" depart="9.959953245422241" />
<vehicle id="type1_13" type="type1" route="nw" depart="11.185234544544112" />
<vehicle id="type1_14" type="type1" route="we" depart="11.875694033490953" />
<vehicle id="type1_15" type="type1" route="sn" depart="12.079078593669836" />
<vehicle id="type1_16" type="type1" route="en" depart="13.088350759815448" />
<vehicle id="type1_17" type="type1" route="wn" depart="13.177211836507743" />
<vehicle id="type1_18" type="type1" route="wn" depart="17.24748199444031" />
<vehicle id="type1_19" type="type1" route="nw" depart="17.45532104555668" />
<vehicle id="type1_20" type="type1" route="es" depart="18.576555560533773" />
<vehicle id="type1_21" type="type1" route="en" depart="19.758820238191912" />
<vehicle id="type1_22" type="type1" route="sw" depart="21.158981061615066" />
<vehicle id="type1_23" type="type1" route="sn" depart="21.65932875920252" />
<vehicle id="type1_24" type="type1" route="wn" depart="22.239859568542293" />
<vehicle id="type1_25" type="type1" route="sw" depart="22.53122085581275" />
<vehicle id="type1_26" type="type1" route="en" depart="24.717365689381065" />
<vehicle id="type1_27" type="type1" route="en" depart="24.745889308216704" />
<vehicle id="type1_28" type="type1" route="sn" depart="26.016300264827724" />
<vehicle id="type1_29" type="type1" route="wn" depart="27.325100020131543" />
<vehicle id="type1_30" type="type1" route="sw" depart="29.24905464707766" />
<vehicle id="type1_31" type="type1" route="ns" depart="30.062434427411606" />
<vehicle id="type1_32" type="type1" route="wn" depart="31.248354314396977" />
<vehicle id="type1_33" type="type1" route="wn" depart="32.15730499217376" />
<vehicle id="type1_34" type="type1" route="ns" depart="34.09262056907443" />
<vehicle id="type1_35" type="type1" route="en" depart="34.56911089833968" />
<vehicle id="type1_36" type="type1" route="se" depart="34.82632190967327" />
<vehicle id="type1_37" type="type1" route="sn" depart="36.12953896687035" />
<vehicle id="type1_38" type="type1" route="es" depart="39.391875453169355" />
<vehicle id="type1_39" type="type1" route="sw" depart="39.39788837838933" />
<vehicle id="type1_40" type="type1" route="ns" depart="39.68464103178335" />
<vehicle id="type1_41" type="type1" route="es" depart="40.75794169917643" />
<vehicle id="type1_42" type="type1" route="we" depart="41.09173402347019" />
<vehicle id="type1_43" type="type1" route="nw" depart="42.65840958174824" />
<vehicle id="type1_44" type="type1" route="sn" depart="43.19917771665753" />
<vehicle id="type1_45" type="type1" route="ew" depart="43.992860008858095" />
<vehicle id="type1_46" type="type1" route="ne" depart="45.28387369203401" />
<vehicle id="type1_47" type="type1" route="ne" depart="48.47164414026678" />
<vehicle id="type1_48" type="type1" route="ew" depart="48.638518541315925" />
<vehicle id="type1_49" type="type1" route="es" depart="50.34299859986099" />
<vehicle id="type1_50" type="type1" route="wn" depart="50.75176399511713" />
<vehicle id="type1_51" type="type1" route="sn" depart="51.21756010638356" />
<vehicle id="type1_52" type="type1" route="en" depart="54.21600006241803" />
<vehicle id="type1_53" type="type1" route="es" depart="54.83413390712532" />
<vehicle id="type1_54" type="type1" route="wn" depart="56.96457178554673" />
<vehicle id="type1_55" type="type1" route="nw" depart="59.2218657572972" />
<vehicle id="type1_56" type="type1" route="sn" depart="59.711308358129244" />
<vehicle id="type1_57" type="type1" route="nw" depart="61.15501712829001" />
<vehicle id="type1_58" type="type1" route="wn" depart="61.36468107071413" />
<vehicle id="type1_59" type="type1" route="se" depart="63.44809772862584" />
<vehicle id="type1_60" type="type1" route="nw" depart="63.835880501329314" />
<vehicle id="type1_61" type="type1" route="ns" depart="64.55874003267081" />
<vehicle id="type1_62" type="type1" route="se" depart="70.70342352644448" />
<vehicle id="type1_63" type="type1" route="ne" depart="71.07325540183346" />
<vehicle id="type1_64" type="type1" route="ns" depart="71.7454646348449" />
<vehicle id="type1_65" type="type1" route="ns" depart="72.58852689544544" />
<vehicle id="type1_66" type="type1" route="wn" depart="73.37831547886209" />
<vehicle id="type1_67" type="type1" route="sn" depart="73.97954411336552" />
<vehicle id="type1_68" type="type1" route="se" depart="75.60508567218244" />
<vehicle id="type1_69" type="type1" route="sn" depart="77.40130973154254" />
<vehicle id="type1_70" type="type1" route="es" depart="77.7079939485878" />
<vehicle id="type1_71" type="type1" route="ws" depart="78.04724804067752" />
<vehicle id="type1_72" type="type1" route="ew" depart="78.36852847772677" />
<vehicle id="type1_73" type="type1" route="sw" depart="79.01485047151111" />
<vehicle id="type1_74" type="type1" route="en" depart="79.04960853565241" />
<vehicle id="type1_75" type="type1" route="ne" depart="79.08696142831131" />
<vehicle id="type1_76" type="type1" route="we" depart="81.37888229864524" />
<vehicle id="type1_77" type="type1" route="wn" depart="81.81774061699807" />
<vehicle id="type1_78" type="type1" route="sn" depart="85.42918371598147" />
<vehicle id="type1_79" type="type1" route="ns" depart="85.6407147170372" />
<vehicle id="type1_80" type="type1" route="se" depart="87.31029723419687" />
<vehicle id="type1_81" type="type1" route="en" depart="88.47842701536418" />
<vehicle id="type1_82" type="type1" route="ns" depart="89.32571390246666" />
<vehicle id="type1_83" type="type1" route="sw" depart="89.87596883389486" />
<vehicle id="type1_84" type="type1" route="ns" depart="91.92314042904727" />
<vehicle id="type1_85" type="type1" route="es" depart="92.45869872803112" />
<vehicle id="type1_86" type="type1" route="sn" depart="97.09370016666132" />
<vehicle id="type1_87" type="type1" route="wn" depart="97.98838871215852" />
<vehicle id="type1_88" type="type1" route="en" depart="104.53130876547189" />
<vehicle id="type1_89" type="type1" route="nw" depart="105.01413117923191" />
<vehicle id="type1_90" type="type1" route="en" depart="106.3797906270321" />
<vehicle id="type1_91" type="type1" route="ns" depart="106.88825856515592" />
<vehicle id="type1_92" type="type1" route="es" depart="112.83505218622876" />
<vehicle id="type1_93" type="type1" route="sn" depart="119.59367100753431" />
<vehicle id="type1_94" type="type1" route="ws" depart="119.85164870736834" />
<vehicle id="type1_95" type="type1" route="ws" depart="123.90455321003114" />
<vehicle id="type1_96" type="type1" route="we" depart="124.24180908360522" />
<vehicle id="type1_97" type="type1" route="en" depart="124.75647395061128" />
<vehicle id="type1_98" type="type1" route="ew" depart="127.08948166437433" />
<vehicle id="type1_99" type="type1" route="we" depart="127.65441840553983" />
<vehicle id="type1_100" type="type1" route="se" depart="128.21934627110178" />
<vehicle id="type1_101" type="type1" route="se" depart="131.60023256692415" />
<vehicle id="type1_102" type="type1" route="we" depart="132.37549233795698" />
<vehicle id="type1_103" type="type1" route="se" depart="133.22961163512227" />
<vehicle id="type1_104" type="type1" route="ne" depart="135.20764083747727" />
<vehicle id="type1_105" type="type1" route="ew" depart="136.66447249366138" />
<vehicle id="type1_106" type="type1" route="en" depart="136.8632460005534" />
<vehicle id="type1_107" type="type1" route="es" depart="139.19184683548536" />
<vehicle id="type1_108" type="type1" route="es" depart="140.22439684884907" />
<vehicle id="type1_109" type="type1" route="sw" depart="141.0305679922787" />
<vehicle id="type1_110" type="type1" route="se" depart="141.1448150676857" />
<vehicle id="type1_111" type="type1" route="ew" depart="143.32676652159859" />
<vehicle id="type1_112" type="type1" route="es" depart="145.79845014383412" />
<vehicle id="type1_113" type="type1" route="sn" depart="148.76352307318473" />
<vehicle id="type1_114" type="type1" route="wn" depart="151.36226895202242" />
<vehicle id="type1_115" type="type1" route="ws" depart="151.68932867219084" />
<vehicle id="type1_116" type="type1" route="ew" depart="151.95354158954137" />
<vehicle id="type1_117" type="type1" route="se" depart="152.6817773445213" />
<vehicle id="type1_118" type="type1" route="nw" depart="153.9485243350858" />
<vehicle id="type1_119" type="type1" route="se" depart="154.2299629941531" />
<vehicle id="type1_120" type="type1" route="ns" depart="160.33389496329366" />
<vehicle id="type1_121" type="type1" route="ws" depart="160.98491433704064" />
<vehicle id="type1_122" type="type1" route="ne" depart="162.05540321298133" />
<vehicle id="type1_123" type="type1" route="we" depart="162.8879612353067" />
<vehicle id="type1_124" type="type1" route="ws" depart="163.50558848522184" />
<vehicle id="type1_125" type="type1" route="ew" depart="167.34951995399024" />
<vehicle id="type1_126" type="type1" route="nw" depart="168.06803656343087" />
<vehicle id="type1_127" type="type1" route="es" depart="168.61146962866775" />
<vehicle id="type1_128" type="type1" route="ne" depart="170.5433528228043" />
<vehicle id="type1_129" type="type1" route="ws" depart="177.34489722000387" />
<vehicle id="type1_130" type="type1" route="se" depart="177.6215206777717" />
<vehicle id="type1_131" type="type1" route="wn" depart="179.32265553374032" />
<vehicle id="type1_132" type="type1" route="wn" depart="179.46581691444948" />
<vehicle id="type1_133" type="type1" route="en" depart="180.28249392196898" />
<vehicle id="type1_134" type="type1" route="wn" depart="181.0911060479841" />
<vehicle id="type1_135" type="type1" route="wn" depart="181.41914309875787" />
<vehicle id="type1_136" type="type1" route="ew" depart="182.12450409272242" />
<vehicle id="type1_137" type="type1" route="we" depart="185.24460987953447" />
<vehicle id="type1_138" type="type1" route="ne" depart="187.04720056073043" />
<vehicle id="type1_139" type="type1" route="ew" depart="188.5382531503251" />
<vehicle id="type1_140" type="type1" route="se" depart="188.58805306489094" />
<vehicle id="type1_141" type="type1" route="we" depart="188.82325811816958" />
<vehicle id="type1_142" type="type1" route="nw" depart="189.16970874138647" />
<vehicle id="type1_143" type="type1" route="ew" depart="190.35790789645586" />
<vehicle id="type1_144" type="type1" route="ne" depart="190.70417409305696" />
<vehicle id="type1_145" type="type1" route="sw" depart="191.76406898876706" />
<vehicle id="type1_146" type="type1" route="ew" depart="192.2511742644274" />
<vehicle id="type1_147" type="type1" route="sn" depart="192.53634491769148" />
<vehicle id="type1_148" type="type1" route="ew" depart="193.35025178745673" />
<vehicle id="type1_149" type="type1" route="sn" depart="196.32404732425354" />
<vehicle id="type1_150" type="type1" route="wn" depart="196.36371686811464" />
<vehicle id="type1_151" type="type1" route="sn" depart="197.69508432794296" />
<vehicle id="type1_152" type="type1" route="nw" depart="198.2405672824829" />
<vehicle id="type1_153" type="type1" route="se" depart="199.2884597686682" />
<vehicle id="type1_154" type="type1" route="ew" depart="199.54512236836956" />
<vehicle id="type1_155" type="type1" route="sw" depart="201.3080662822747" />
<vehicle id="type1_156" type="type1" route="en" depart="202.0417113512918" />
<vehicle id="type1_157" type="type1" route="we" depart="203.7391854824756" />
<vehicle id="type1_158" type="type1" route="nw" depart="205.76854834930447" />
<vehicle id="type1_159" type="type1" route="en" depart="206.25728660470617" />
<vehicle id="type1_160" type="type1" route="ew" depart="207.46362463902318" />
<vehicle id="type1_161" type="type1" route="ne" depart="208.2851425884483" />
<vehicle id="type1_162" type="type1" route="nw" depart="209.55526594920008" />
<vehicle id="type1_163" type="type1" route="en" depart="210.33498543996538" />
<vehicle id="type1_164" type="type1" route="nw" depart="212.01999941334608" />
<vehicle id="type1_165" type="type1" route="wn" depart="213.80208279843015" />
<vehicle id="type1_166" type="type1" route="nw" depart="215.6315173982179" />
<vehicle id="type1_167" type="type1" route="ne" depart="216.00200065390064" />
<vehicle id="type1_168" type="type1" route="se" depart="216.06805000199657" />
<vehicle id="type1_169" type="type1" route="en" depart="218.88514988100263" />
<vehicle id="type1_170" type="type1" route="nw" depart="218.92630671872675" />
<vehicle id="type1_171" type="type1" route="sn" depart="218.9442353326614" />
<vehicle id="type1_172" type="type1" route="ew" depart="222.0996374321275" />
<vehicle id="type1_173" type="type1" route="nw" depart="222.5331067560001" />
<vehicle id="type1_174" type="type1" route="nw" depart="222.96463965141984" />
<vehicle id="type1_175" type="type1" route="se" depart="225.40089749206942" />
<vehicle id="type1_176" type="type1" route="we" depart="227.23442542804244" />
<vehicle id="type1_177" type="type1" route="se" depart="230.43877566742847" />
<vehicle id="type1_178" type="type1" route="se" depart="234.14151750402664" />
<vehicle id="type1_179" type="type1" route="ns" depart="234.31594101032817" />
<vehicle id="type1_180" type="type1" route="se" depart="235.3399769320806" />
<vehicle id="type1_181" type="type1" route="es" depart="235.73935891254317" />
<vehicle id="type1_182" type="type1" route="sw" depart="237.32033477806806" />
<vehicle id="type1_183" type="type1" route="ns" depart="237.36402000713096" />
<vehicle id="type1_184" type="type1" route="sw" depart="237.99288452929122" />
<vehicle id="type1_185" type="type1" route="wn" depart="238.1421157809149" />
<vehicle id="type1_186" type="type1" route="es" depart="239.460935075751" />
<vehicle id="type1_187" type="type1" route="nw" depart="240.1116778517391" />
<vehicle id="type1_188" type="type1" route="se" depart="240.9268404645689" />
<vehicle id="type1_189" type="type1" route="ns" depart="241.79639083254295" />
<vehicle id="type1_190" type="type1" route="sn" depart="245.8920554303312" />
<vehicle id="type1_191" type="type1" route="se" depart="247.8889418576657" />
<vehicle id="type1_192" type="type1" route="es" depart="249.5542932879751" />
<vehicle id="type1_193" type="type1" route="en" depart="250.36042446983868" />
<vehicle id="type1_194" type="type1" route="sw" depart="252.00283249545208" />
<vehicle id="type1_195" type="type1" route="ns" depart="253.59777112177883" />
<vehicle id="type1_196" type="type1" route="ne" depart="254.03884280852807" />
<vehicle id="type1_197" type="type1" route="se" depart="254.24423158137625" />
<vehicle id="type1_198" type="type1" route="nw" depart="256.54707662112827" />
<vehicle id="type1_199" type="type1" route="ew" depart="256.6044730053001" />
<vehicle id="type1_200" type="type1" route="sn" depart="257.0439131329149" />
<vehicle id="type1_201" type="type1" route="nw" depart="259.1798970588156" />
<vehicle id="type1_202" type="type1" route="nw" depart="260.32930063739553" />
<vehicle id="type1_203" type="type1" route="en" depart="261.88989124221035" />
<vehicle id="type1_204" type="type1" route="en" depart="262.2578293255747" />
<vehicle id="type1_205" type="type1" route="sw" depart="263.14573944772314" />
<vehicle id="type1_206" type="type1" route="se" depart="264.2327008370423" />
<vehicle id="type1_207" type="type1" route="ne" depart="264.8175194107119" />
<vehicle id="type1_208" type="type1" route="ns" depart="265.10207677177897" />
<vehicle id="type1_209" type="type1" route="ne" depart="265.81136712080746" />
<vehicle id="type1_210" type="type1" route="nw" depart="265.99658360407085" />
<vehicle id="type1_211" type="type1" route="se" depart="266.707102637939" />
<vehicle id="type1_212" type="type1" route="we" depart="268.36662193964116" />
<vehicle id="type1_213" type="type1" route="we" depart="270.18027764866144" />
<vehicle id="type1_214" type="type1" route="se" depart="270.3613843481033" />
<vehicle id="type1_215" type="type1" route="sw" depart="272.6219361309115" />
<vehicle id="type1_216" type="type1" route="ws" depart="273.22686778601195" />
<vehicle id="type1_217" type="type1" route="sn" depart="273.66615192464474" />
<vehicle id="type1_218" type="type1" route="nw" depart="274.9175803555803" />
<vehicle id="type1_219" type="type1" route="we" depart="275.656039311546" />
<vehicle id="type1_220" type="type1" route="ws" depart="277.0403435690082" />
<vehicle id="type1_221" type="type1" route="we" depart="277.0756371108829" />
<vehicle id="type1_222" type="type1" route="es" depart="277.21297683509516" />
<vehicle id="type1_223" type="type1" route="ns" depart="278.05144805686655" />
<vehicle id="type1_224" type="type1" route="nw" depart="279.52717165262214" />
<vehicle id="type1_225" type="type1" route="sw" depart="281.8946317305534" />
<vehicle id="type1_226" type="type1" route="ns" depart="282.0063531116752" />
<vehicle id="type1_227" type="type1" route="es" depart="283.392752645369" />
<vehicle id="type1_228" type="type1" route="ew" depart="285.9047002097253" />
<vehicle id="type1_229" type="type1" route="wn" depart="286.10562294351837" />
<vehicle id="type1_230" type="type1" route="sw" depart="288.06689576603395" />
<vehicle id="type1_231" type="type1" route="sw" depart="288.4684762373448" />
<vehicle id="type1_232" type="type1" route="ne" depart="289.08536666689776" />
<vehicle id="type1_233" type="type1" route="wn" depart="290.1775542464553" />
<vehicle id="type1_234" type="type1" route="en" depart="293.6546760296547" />
<vehicle id="type1_235" type="type1" route="en" depart="297.12127976589915" />
<vehicle id="type1_236" type="type1" route="ws" depart="303.7101122902428" />
<vehicle id="type1_237" type="type1" route="nw" depart="303.7140266672732" />
<vehicle id="type1_238" type="type1" route="ew" depart="304.65444854610615" />
<vehicle id="type1_239" type="type1" route="ws" depart="304.90516140318186" />
<vehicle id="type1_240" type="type1" route="es" depart="306.78223762289156" />
<vehicle id="type1_241" type="type1" route="sn" depart="309.68999824461173" />
<vehicle id="type1_242" type="type1" route="we" depart="309.7461733531527" />
<vehicle id="type1_243" type="type1" route="se" depart="311.2646806558459" />
<vehicle id="type1_244" type="type1" route="sn" depart="311.5968325333149" />
<vehicle id="type1_245" type="type1" route="ws" depart="311.6047437143499" />
<vehicle id="type1_246" type="type1" route="nw" depart="313.146581383519" />
<vehicle id="type1_247" type="type1" route="we" depart="313.5130177956628" />
<vehicle id="type1_248" type="type1" route="ne" depart="317.141838625518" />
<vehicle id="type1_249" type="type1" route="se" depart="317.58979520541834" />
<vehicle id="type1_250" type="type1" route="ws" depart="317.7167189797329" />
<vehicle id="type1_251" type="type1" route="en" depart="319.40169240950496" />
<vehicle id="type1_252" type="type1" route="ew" depart="319.9183384638799" />
<vehicle id="type1_253" type="type1" route="wn" depart="323.82850858596385" />
<vehicle id="type1_254" type="type1" route="sw" depart="328.1294496015983" />
<vehicle id="type1_255" type="type1" route="we" depart="331.4864927888601" />
<vehicle id="type1_256" type="type1" route="ws" depart="331.8535802934477" />
<vehicle id="type1_257" type="type1" route="nw" depart="332.0917892280038" />
<vehicle id="type1_258" type="type1" route="ne" depart="333.8144419050201" />
<vehicle id="type1_259" type="type1" route="sw" depart="336.9220666995655" />
<vehicle id="type1_260" type="type1" route="se" depart="336.9476310338306" />
<vehicle id="type1_261" type="type1" route="ns" depart="338.1938390807496" />
<vehicle id="type1_262" type="type1" route="ws" depart="338.3557740136667" />
<vehicle id="type1_263" type="type1" route="ne" depart="340.7093979281092" />
<vehicle id="type1_264" type="type1" route="ew" depart="341.0200244061212" />
<vehicle id="type1_265" type="type1" route="we" depart="344.1657206613445" />
<vehicle id="type1_266" type="type1" route="wn" depart="344.5538834252929" />
<vehicle id="type1_267" type="type1" route="ws" depart="344.8145728183981" />
<vehicle id="type1_268" type="type1" route="ns" depart="345.7317562866701" />
<vehicle id="type1_269" type="type1" route="ew" depart="349.7520398202587" />
<vehicle id="type1_270" type="type1" route="se" depart="350.98996141444604" />
<vehicle id="type1_271" type="type1" route="ws" depart="352.113202135922" />
<vehicle id="type1_272" type="type1" route="we" depart="352.3698102399452" />
<vehicle id="type1_273" type="type1" route="ws" depart="352.7311882126989" />
<vehicle id="type1_274" type="type1" route="we" depart="355.34394451239024" />
<vehicle id="type1_275" type="type1" route="en" depart="358.5763260433566" />
<vehicle id="type1_276" type="type1" route="se" depart="360.0447084840822" />
<vehicle id="type1_277" type="type1" route="sw" depart="360.4501370019291" />
<vehicle id="type1_278" type="type1" route="we" depart="361.46571835259016" />
<vehicle id="type1_279" type="type1" route="we" depart="363.9513921335881" />
<vehicle id="type1_280" type="type1" route="en" depart="364.94444023569827" />
<vehicle id="type1_281" type="type1" route="sw" depart="364.95862681892754" />
<vehicle id="type1_282" type="type1" route="nw" depart="367.4015982629335" />
<vehicle id="type1_283" type="type1" route="wn" depart="371.6118025884527" />
<vehicle id="type1_284" type="type1" route="ns" depart="371.7694577269015" />
<vehicle id="type1_285" type="type1" route="sn" depart="373.66079292849497" />
<vehicle id="type1_286" type="type1" route="en" depart="375.255183051993" />
<vehicle id="type1_287" type="type1" route="sn" depart="375.47271372008163" />
<vehicle id="type1_288" type="type1" route="nw" depart="376.46037815699225" />
<vehicle id="type1_289" type="type1" route="we" depart="378.2605330503435" />
<vehicle id="type1_290" type="type1" route="ew" depart="378.6795523642801" />
<vehicle id="type1_291" type="type1" route="es" depart="378.681651155488" />
<vehicle id="type1_292" type="type1" route="sn" depart="378.7945442404653" />
<vehicle id="type1_293" type="type1" route="ew" depart="379.15639249247704" />
<vehicle id="type1_294" type="type1" route="we" depart="383.981633428182" />
<vehicle id="type1_295" type="type1" route="ws" depart="384.12963488861055" />
<vehicle id="type1_296" type="type1" route="ne" depart="386.06649551414415" />
<vehicle id="type1_297" type="type1" route="es" depart="386.16993446232425" />
<vehicle id="type1_298" type="type1" route="ns" depart="387.1421399957594" />
<vehicle id="type1_299" type="type1" route="se" depart="387.3312269241968" />
<vehicle id="type1_300" type="type1" route="ns" depart="388.1253259779185" />
</routes>