<routes>
            <vType id="type1" accel="0.8" decel="4.5" sigma="0.5" length="5" maxSpeed="70"/>
            <vType id="rescue" vClass="emergency" speedFactor="1.5" guiShape="emergency">
                <param key="has.bluelight.device" value="true"/>
            </vType>
            <route id="ne" edges="ni eo"/>
            <route id="ns" edges="ni so"/>
            <route id="nw" edges="ni wo"/>
            <route id="en" edges="ei no"/>
            <route id="es" edges="ei so"/>
            <route id="ew" edges="ei wo"/>
            <route id="sn" edges="si no"/>
            <route id="se" edges="si eo"/>
            <route id="sw" edges="si wo"/>
            <route id="wn" edges="wi no"/>
            <route id="we" edges="wi eo"/>
            <route id="ws" edges="wi so"/>
        <vehicle id="type1_1" type="type1" route="wn" depart="1.482772962476092" />
<vehicle id="type1_2" type="type1" route="sn" depart="1.6016446507812503" />
<vehicle id="type1_3" type="type1" route="en" depart="1.685082521875689" />
<vehicle id="type1_4" type="type1" route="sn" depart="1.8716581578541143" />
<vehicle id="type1_5" type="type1" route="we" depart="3.1679728516337575" />
<vehicle id="type1_6" type="type1" route="ne" depart="3.6650950450292417" />
<vehicle id="type1_7" type="type1" route="ew" depart="4.723067902614308" />
<vehicle id="emv_1" type="rescue" route="ws" depart="5.052268913764114" />
<vehicle id="type1_8" type="type1" route="ne" depart="6.245527620322477" />
<vehicle id="type1_9" type="type1" route="nw" depart="6.879538178959309" />
<vehicle id="type1_10" type="type1" route="se" depart="7.272967644241379" />
<vehicle id="type1_11" type="type1" route="we" depart="7.808302967230097" />
<vehicle id="type1_12" type="type1" route="nw" depart="10.748620026078488" />
<vehicle id="type1_13" type="type1" route="we" depart="13.363740397106344" />
<vehicle id="type1_14" type="type1" route="sn" depart="17.57280633473235" />
<vehicle id="emv_2" type="rescue" route="en" depart="18.413881995574222" />
<vehicle id="type1_15" type="type1" route="wn" depart="19.84017724822604" />
<vehicle id="type1_16" type="type1" route="wn" depart="22.242555609969056" />
<vehicle id="type1_17" type="type1" route="nw" depart="22.592008238764972" />
<vehicle id="type1_18" type="type1" route="es" depart="23.188402467505988" />
<vehicle id="type1_19" type="type1" route="en" depart="25.598880257386966" />
<vehicle id="type1_20" type="type1" route="sw" depart="25.6835657963646" />
<vehicle id="type1_21" type="type1" route="sn" depart="25.89392248208258" />
<vehicle id="type1_22" type="type1" route="wn" depart="26.668236360066942" />
<vehicle id="type1_23" type="type1" route="sw" depart="26.828811538396497" />
<vehicle id="emv_3" type="rescue" route="en" depart="27.960122888261306" />
<vehicle id="type1_24" type="type1" route="en" depart="28.685239720501485" />
<vehicle id="type1_25" type="type1" route="sn" depart="29.254067276299573" />
<vehicle id="type1_26" type="type1" route="wn" depart="29.404977432431153" />
<vehicle id="type1_27" type="type1" route="sw" depart="31.373625909429872" />
<vehicle id="type1_28" type="type1" route="ns" depart="32.11250248150572" />
<vehicle id="type1_29" type="type1" route="wn" depart="32.866747469379604" />
<vehicle id="type1_30" type="type1" route="wn" depart="34.072393949469365" />
<vehicle id="type1_31" type="type1" route="ns" depart="34.42896899053794" />
<vehicle id="type1_32" type="type1" route="en" depart="35.224409259921124" />
<vehicle id="emv_4" type="rescue" route="se" depart="36.62855869796254" />
<vehicle id="type1_33" type="type1" route="sn" depart="38.08086727127965" />
<vehicle id="type1_34" type="type1" route="es" depart="40.154125942216005" />
<vehicle id="type1_35" type="type1" route="sw" depart="40.503323708507104" />
<vehicle id="type1_36" type="type1" route="ns" depart="41.88236441211435" />
<vehicle id="type1_37" type="type1" route="es" depart="42.14989959817738" />
<vehicle id="type1_38" type="type1" route="we" depart="42.82643442722483" />
<vehicle id="type1_39" type="type1" route="nw" depart="43.58014418681436" />
<vehicle id="type1_40" type="type1" route="sn" depart="44.38099957395793" />
<vehicle id="type1_41" type="type1" route="ew" depart="47.15389922747858" />
<vehicle id="type1_42" type="type1" route="ne" depart="48.743771720293296" />
<vehicle id="type1_43" type="type1" route="ne" depart="48.952778518470524" />
<vehicle id="type1_44" type="type1" route="ew" depart="50.68615657119165" />
<vehicle id="type1_45" type="type1" route="es" depart="51.3948637332" />
<vehicle id="type1_46" type="type1" route="wn" depart="52.35568243828674" />
<vehicle id="type1_47" type="type1" route="sn" depart="52.87324531769599" />
<vehicle id="type1_48" type="type1" route="en" depart="60.046055892072985" />
<vehicle id="type1_49" type="type1" route="es" depart="61.52403012366741" />
<vehicle id="type1_50" type="type1" route="wn" depart="61.638880816972616" />
<vehicle id="type1_51" type="type1" route="nw" depart="63.89847277083645" />
<vehicle id="type1_52" type="type1" route="sn" depart="66.63382605275048" />
<vehicle id="type1_53" type="type1" route="nw" depart="67.25393576260176" />
<vehicle id="type1_54" type="type1" route="wn" depart="67.78357269791712" />
<vehicle id="type1_55" type="type1" route="se" depart="68.42635317585835" />
<vehicle id="type1_56" type="type1" route="nw" depart="68.62913192068793" />
<vehicle id="emv_5" type="rescue" route="ns" depart="68.92060315475625" />
<vehicle id="type1_57" type="type1" route="se" depart="69.64976953569584" />
<vehicle id="type1_58" type="type1" route="ne" depart="75.48154609332636" />
<vehicle id="type1_59" type="type1" route="ns" depart="75.57687793819014" />
<vehicle id="type1_60" type="type1" route="ns" depart="76.10084663473775" />
<vehicle id="type1_61" type="type1" route="wn" depart="79.45712709497073" />
<vehicle id="type1_62" type="type1" route="sn" depart="79.82623738681342" />
<vehicle id="type1_63" type="type1" route="se" depart="80.13111763251067" />
<vehicle id="type1_64" type="type1" route="sn" depart="82.6437757968184" />
<vehicle id="type1_65" type="type1" route="es" depart="83.1602176997355" />
<vehicle id="type1_66" type="type1" route="ws" depart="84.58962034470068" />
<vehicle id="type1_67" type="type1" route="ew" depart="84.77565852314181" />
<vehicle id="type1_68" type="type1" route="sw" depart="85.63015704388383" />
<vehicle id="type1_69" type="type1" route="en" depart="87.62188314934495" />
<vehicle id="type1_70" type="type1" route="ne" depart="94.48756662771598" />
<vehicle id="type1_71" type="type1" route="we" depart="94.92800995432462" />
<vehicle id="type1_72" type="type1" route="wn" depart="95.01497519218502" />
<vehicle id="type1_73" type="type1" route="sn" depart="98.77190184318182" />
<vehicle id="emv_6" type="rescue" route="ns" depart="100.75895445259412" />
<vehicle id="type1_74" type="type1" route="se" depart="104.49516280164727" />
<vehicle id="type1_75" type="type1" route="en" depart="105.5524445841403" />
<vehicle id="type1_76" type="type1" route="ns" depart="106.63070980470361" />
<vehicle id="type1_77" type="type1" route="sw" depart="106.94944408359663" />
<vehicle id="emv_7" type="rescue" route="ns" depart="108.5318286457666" />
<vehicle id="type1_78" type="type1" route="es" depart="109.27968648896973" />
<vehicle id="type1_79" type="type1" route="sn" depart="109.6671784856024" />
<vehicle id="type1_80" type="type1" route="wn" depart="111.27136608431583" />
<vehicle id="emv_8" type="rescue" route="en" depart="117.10399207202883" />
<vehicle id="type1_81" type="type1" route="nw" depart="118.85875194876796" />
<vehicle id="type1_82" type="type1" route="en" depart="119.01496801917807" />
<vehicle id="type1_83" type="type1" route="ns" depart="119.13863679604376" />
<vehicle id="type1_84" type="type1" route="es" depart="122.41061483504816" />
<vehicle id="type1_85" type="type1" route="sn" depart="122.75485804949882" />
<vehicle id="type1_86" type="type1" route="ws" depart="123.99677951585252" />
<vehicle id="type1_87" type="type1" route="ws" depart="124.61797064440675" />
<vehicle id="type1_88" type="type1" route="we" depart="130.31972942566065" />
<vehicle id="type1_89" type="type1" route="en" depart="130.4159635202644" />
<vehicle id="type1_90" type="type1" route="ew" depart="131.35651979335316" />
<vehicle id="type1_91" type="type1" route="we" depart="131.6361639858227" />
<vehicle id="type1_92" type="type1" route="se" depart="134.90376186098786" />
<vehicle id="type1_93" type="type1" route="se" depart="138.75932455901332" />
<vehicle id="type1_94" type="type1" route="we" depart="140.0862246510006" />
<vehicle id="type1_95" type="type1" route="se" depart="140.5354131971083" />
<vehicle id="type1_96" type="type1" route="ne" depart="141.45261542294247" />
<vehicle id="type1_97" type="type1" route="ew" depart="144.06620781236353" />
<vehicle id="type1_98" type="type1" route="en" depart="144.9887844022385" />
<vehicle id="type1_99" type="type1" route="es" depart="145.85053142117076" />
<vehicle id="type1_100" type="type1" route="es" depart="148.9851139523168" />
<vehicle id="type1_101" type="type1" route="sw" depart="150.8893836565959" />
<vehicle id="type1_102" type="type1" route="se" depart="150.9561812615008" />
<vehicle id="type1_103" type="type1" route="ew" depart="152.35428676263942" />
<vehicle id="type1_104" type="type1" route="es" depart="152.64858698841212" />
<vehicle id="type1_105" type="type1" route="sn" depart="152.67806133743935" />
<vehicle id="type1_106" type="type1" route="wn" depart="154.14770051858653" />
<vehicle id="type1_107" type="type1" route="ws" depart="157.23295415779933" />
<vehicle id="type1_108" type="type1" route="ew" depart="157.54144018530607" />
<vehicle id="type1_109" type="type1" route="se" depart="157.8356366442212" />
<vehicle id="emv_9" type="rescue" route="nw" depart="159.12708092459187" />
<vehicle id="type1_110" type="type1" route="se" depart="161.0093884328401" />
<vehicle id="type1_111" type="type1" route="ns" depart="163.81176054915105" />
<vehicle id="type1_112" type="type1" route="ws" depart="163.90102645315568" />
<vehicle id="type1_113" type="type1" route="ne" depart="166.70544104191347" />
<vehicle id="type1_114" type="type1" route="we" depart="168.64964419187868" />
<vehicle id="type1_115" type="type1" route="ws" depart="169.28027368306022" />
<vehicle id="type1_116" type="type1" route="ew" depart="170.23389623196343" />
<vehicle id="type1_117" type="type1" route="nw" depart="170.55772619398647" />
<vehicle id="type1_118" type="type1" route="es" depart="171.19514282646324" />
<vehicle id="type1_119" type="type1" route="ne" depart="172.50359777048556" />
<vehicle id="type1_120" type="type1" route="ws" depart="173.6292866256033" />
<vehicle id="type1_121" type="type1" route="se" depart="175.25785719031626" />
<vehicle id="emv_10" type="rescue" route="wn" depart="176.4685620929611" />
<vehicle id="type1_122" type="type1" route="wn" depart="176.65311454440044" />
<vehicle id="type1_123" type="type1" route="en" depart="177.7999772219319" />
<vehicle id="type1_124" type="type1" route="wn" depart="178.3925682475081" />
<vehicle id="type1_125" type="type1" route="wn" depart="178.45502731211263" />
<vehicle id="type1_126" type="type1" route="ew" depart="183.74875430172963" />
<vehicle id="type1_127" type="type1" route="we" depart="185.8828067440441" />
<vehicle id="type1_128" type="type1" route="ne" depart="186.8551216992693" />
<vehicle id="type1_129" type="type1" route="ew" depart="194.3688731252929" />
<vehicle id="type1_130" type="type1" route="se" depart="195.9438405452907" />
<vehicle id="type1_131" type="type1" route="we" depart="196.6030053447993" />
<vehicle id="type1_132" type="type1" route="nw" depart="196.6853163076149" />
<vehicle id="emv_11" type="rescue" route="ew" depart="196.90250835759144" />
<vehicle id="type1_133" type="type1" route="ne" depart="197.94842203808315" />
<vehicle id="type1_134" type="type1" route="sw" depart="202.75878162852771" />
<vehicle id="type1_135" type="type1" route="ew" depart="204.5221189267664" />
<vehicle id="type1_136" type="type1" route="sn" depart="206.11187073812454" />
<vehicle id="type1_137" type="type1" route="ew" depart="206.72592675949505" />
<vehicle id="type1_138" type="type1" route="sn" depart="207.86612403697467" />
<vehicle id="type1_139" type="type1" route="wn" depart="208.62740665415936" />
<vehicle id="emv_12" type="rescue" route="sn" depart="208.7356657662126" />
<vehicle id="type1_140" type="type1" route="nw" depart="214.46769671340567" />
<vehicle id="type1_141" type="type1" route="se" depart="214.53263759153072" />
<vehicle id="emv_13" type="rescue" route="ew" depart="214.6682630023114" />
<vehicle id="type1_142" type="type1" route="sw" depart="215.83861399639994" />
<vehicle id="type1_143" type="type1" route="en" depart="215.85754234559633" />
<vehicle id="type1_144" type="type1" route="we" depart="217.44686401621252" />
<vehicle id="type1_145" type="type1" route="nw" depart="218.0004108523775" />
<vehicle id="type1_146" type="type1" route="en" depart="219.960505507625" />
<vehicle id="type1_147" type="type1" route="ew" depart="221.34995136351506" />
<vehicle id="type1_148" type="type1" route="ne" depart="223.7704260040193" />
<vehicle id="type1_149" type="type1" route="nw" depart="225.1755191451595" />
<vehicle id="type1_150" type="type1" route="en" depart="226.40372830480098" />
<vehicle id="type1_151" type="type1" route="nw" depart="227.14044368294907" />
<vehicle id="type1_152" type="type1" route="wn" depart="227.77338286494586" />
<vehicle id="type1_153" type="type1" route="nw" depart="228.50953919192548" />
<vehicle id="type1_154" type="type1" route="ne" depart="229.35945468782757" />
<vehicle id="type1_155" type="type1" route="se" depart="232.42090270074135" />
<vehicle id="type1_156" type="type1" route="en" depart="233.80328532577127" />
<vehicle id="type1_157" type="type1" route="nw" depart="235.33968172306461" />
<vehicle id="type1_158" type="type1" route="sn" depart="237.25936012971903" />
<vehicle id="type1_159" type="type1" route="ew" depart="238.27696590903065" />
<vehicle id="type1_160" type="type1" route="nw" depart="240.16482384514367" />
<vehicle id="type1_161" type="type1" route="nw" depart="241.40890831532687" />
<vehicle id="type1_162" type="type1" route="se" depart="241.453922486585" />
<vehicle id="type1_163" type="type1" route="we" depart="243.17830637181743" />
<vehicle id="emv_14" type="rescue" route="se" depart="244.4349140970354" />
<vehicle id="emv_15" type="rescue" route="se" depart="245.61992659332745" />
<vehicle id="type1_164" type="type1" route="ns" depart="245.8794124127259" />
<vehicle id="type1_165" type="type1" route="se" depart="245.95334827066233" />
<vehicle id="type1_166" type="type1" route="es" depart="245.96859688521988" />
<vehicle id="type1_167" type="type1" route="sw" depart="248.60091253042057" />
<vehicle id="type1_168" type="type1" route="ns" depart="251.54070046840502" />
<vehicle id="type1_169" type="type1" route="sw" depart="251.9126344291846" />
<vehicle id="type1_170" type="type1" route="wn" depart="252.4423023555711" />
<vehicle id="type1_171" type="type1" route="es" depart="253.97978247319642" />
<vehicle id="emv_16" type="rescue" route="nw" depart="255.17590478631612" />
<vehicle id="type1_172" type="type1" route="se" depart="255.46769938289552" />
<vehicle id="type1_173" type="type1" route="ns" depart="256.7124164266286" />
<vehicle id="type1_174" type="type1" route="sn" depart="258.1522647955975" />
<vehicle id="type1_175" type="type1" route="se" depart="258.3138433671807" />
<vehicle id="type1_176" type="type1" route="es" depart="260.14991613959023" />
<vehicle id="type1_177" type="type1" route="en" depart="260.4165662676234" />
<vehicle id="type1_178" type="type1" route="sw" depart="261.7062139084452" />
<vehicle id="type1_179" type="type1" route="ns" depart="262.48299119085794" />
<vehicle id="type1_180" type="type1" route="ne" depart="263.35577176487016" />
<vehicle id="type1_181" type="type1" route="se" depart="263.4177902525475" />
<vehicle id="type1_182" type="type1" route="nw" depart="263.85171944312634" />
<vehicle id="type1_183" type="type1" route="ew" depart="264.7021477471931" />
<vehicle id="emv_17" type="rescue" route="sn" depart="265.0066898506821" />
<vehicle id="type1_184" type="type1" route="nw" depart="265.9785181055382" />
<vehicle id="type1_185" type="type1" route="nw" depart="266.68685677552475" />
<vehicle id="type1_186" type="type1" route="en" depart="267.7315319374867" />
<vehicle id="type1_187" type="type1" route="en" depart="267.9056066730651" />
<vehicle id="type1_188" type="type1" route="sw" depart="268.6446534224418" />
<vehicle id="type1_189" type="type1" route="se" depart="270.5144917375556" />
<vehicle id="type1_190" type="type1" route="ne" depart="271.5558333355989" />
<vehicle id="type1_191" type="type1" route="ns" depart="272.61388064415246" />
<vehicle id="type1_192" type="type1" route="ne" depart="272.8873014393769" />
<vehicle id="type1_193" type="type1" route="nw" depart="273.37274126416474" />
<vehicle id="type1_194" type="type1" route="se" depart="275.6813625364817" />
<vehicle id="type1_195" type="type1" route="we" depart="278.70263566557236" />
<vehicle id="type1_196" type="type1" route="we" depart="281.85820397627896" />
<vehicle id="type1_197" type="type1" route="se" depart="282.9045727624699" />
<vehicle id="type1_198" type="type1" route="sw" depart="283.8245710347516" />
<vehicle id="type1_199" type="type1" route="ws" depart="283.8425637487286" />
<vehicle id="type1_200" type="type1" route="sn" depart="286.5196985117617" />
<vehicle id="type1_201" type="type1" route="nw" depart="286.61706070356144" />
<vehicle id="type1_202" type="type1" route="we" depart="291.91807455029436" />
<vehicle id="type1_203" type="type1" route="ws" depart="292.0327480260451" />
<vehicle id="type1_204" type="type1" route="we" depart="292.3219231561123" />
<vehicle id="type1_205" type="type1" route="es" depart="293.31146658755586" />
<vehicle id="type1_206" type="type1" route="ns" depart="294.87367047989943" />
<vehicle id="type1_207" type="type1" route="nw" depart="295.13372409372266" />
<vehicle id="type1_208" type="type1" route="sw" depart="295.1408071152623" />
<vehicle id="type1_209" type="type1" route="ns" depart="295.659512495388" />
<vehicle id="type1_210" type="type1" route="es" depart="296.3215220177937" />
<vehicle id="type1_211" type="type1" route="ew" depart="296.32233596330104" />
<vehicle id="type1_212" type="type1" route="wn" depart="301.1533122049838" />
<vehicle id="type1_213" type="type1" route="sw" depart="301.4151332206223" />
<vehicle id="type1_214" type="type1" route="sw" depart="304.47981592801756" />
<vehicle id="type1_215" type="type1" route="ne" depart="306.67947248997007" />
<vehicle id="type1_216" type="type1" route="wn" depart="306.73148272386305" />
<vehicle id="type1_217" type="type1" route="en" depart="307.8350115886097" />
<vehicle id="type1_218" type="type1" route="en" depart="310.54511424604664" />
<vehicle id="type1_219" type="type1" route="ws" depart="310.75752128724974" />
<vehicle id="type1_220" type="type1" route="nw" depart="312.1565468175807" />
<vehicle id="type1_221" type="type1" route="ew" depart="316.3022218066252" />
<vehicle id="type1_222" type="type1" route="ws" depart="317.61243524900976" />
<vehicle id="type1_223" type="type1" route="es" depart="317.8797744318061" />
<vehicle id="type1_224" type="type1" route="sn" depart="318.0079927384741" />
<vehicle id="type1_225" type="type1" route="we" depart="319.97522834807415" />
<vehicle id="type1_226" type="type1" route="se" depart="322.88093523080033" />
<vehicle id="type1_227" type="type1" route="sn" depart="325.12325818994907" />
<vehicle id="type1_228" type="type1" route="ws" depart="326.5665914290451" />
<vehicle id="type1_229" type="type1" route="nw" depart="327.61307728121034" />
<vehicle id="type1_230" type="type1" route="we" depart="328.9580348625008" />
<vehicle id="type1_231" type="type1" route="ne" depart="334.06795117244803" />
<vehicle id="type1_232" type="type1" route="se" depart="335.0434824145133" />
<vehicle id="type1_233" type="type1" route="ws" depart="337.9880240412671" />
<vehicle id="type1_234" type="type1" route="en" depart="338.0120011639588" />
<vehicle id="type1_235" type="type1" route="ew" depart="338.25107929404163" />
<vehicle id="type1_236" type="type1" route="wn" depart="340.6983246233709" />
<vehicle id="type1_237" type="type1" route="sw" depart="340.71784080008877" />
<vehicle id="emv_18" type="rescue" route="we" depart="342.76724037202075" />
<vehicle id="type1_238" type="type1" route="ws" depart="344.8453269215342" />
<vehicle id="type1_239" type="type1" route="nw" depart="345.3873870310429" />
<vehicle id="type1_240" type="type1" route="ne" depart="346.4402867584669" />
<vehicle id="type1_241" type="type1" route="sw" depart="346.87456689192857" />
<vehicle id="type1_242" type="type1" route="se" depart="347.5949286008468" />
<vehicle id="type1_243" type="type1" route="ns" depart="347.65969148726" />
<vehicle id="type1_244" type="type1" route="ws" depart="349.76216192705294" />
<vehicle id="emv_19" type="rescue" route="ne" depart="350.7574093042505" />
<vehicle id="type1_245" type="type1" route="ew" depart="350.830825759934" />
<vehicle id="type1_246" type="type1" route="we" depart="351.0147635405193" />
<vehicle id="type1_247" type="type1" route="wn" depart="355.24150333715926" />
<vehicle id="type1_248" type="type1" route="ws" depart="357.07893131305775" />
<vehicle id="type1_249" type="type1" route="ns" depart="362.30365960522295" />
<vehicle id="type1_250" type="type1" route="ew" depart="362.46780633620097" />
<vehicle id="type1_251" type="type1" route="se" depart="363.2631270223384" />
<vehicle id="type1_252" type="type1" route="ws" depart="366.1116193009516" />
<vehicle id="type1_253" type="type1" route="we" depart="377.16261408001077" />
<vehicle id="type1_254" type="type1" route="ws" depart="377.4790049190995" />
<vehicle id="emv_20" type="rescue" route="we" depart="377.59164082417504" />
<vehicle id="type1_255" type="type1" route="en" depart="377.95841472572033" />
<vehicle id="type1_256" type="type1" route="se" depart="380.56415542920524" />
<vehicle id="type1_257" type="type1" route="sw" depart="382.3012978265557" />
<vehicle id="type1_258" type="type1" route="we" depart="382.5972382950664" />
<vehicle id="type1_259" type="type1" route="we" depart="383.50917577446273" />
<vehicle id="emv_21" type="rescue" route="en" depart="383.54701882755904" />
<vehicle id="type1_260" type="type1" route="sw" depart="389.129899310022" />
<vehicle id="type1_261" type="type1" route="nw" depart="390.08753763633223" />
<vehicle id="type1_262" type="type1" route="wn" depart="392.917416357079" />
<vehicle id="type1_263" type="type1" route="ns" depart="400.1490353542558" />
<vehicle id="type1_264" type="type1" route="sn" depart="400.22754800170753" />
<vehicle id="type1_265" type="type1" route="en" depart="400.92339810172" />
<vehicle id="type1_266" type="type1" route="sn" depart="402.59358739518507" />
<vehicle id="type1_267" type="type1" route="nw" depart="402.79825412154213" />
<vehicle id="type1_268" type="type1" route="we" depart="403.60352873461375" />
<vehicle id="type1_269" type="type1" route="ew" depart="406.32148730617956" />
<vehicle id="type1_270" type="type1" route="es" depart="408.9003633961197" />
<vehicle id="type1_271" type="type1" route="sn" depart="409.0048116121451" />
<vehicle id="type1_272" type="type1" route="ew" depart="410.00504585813724" />
<vehicle id="type1_273" type="type1" route="we" depart="410.38003620019117" />
<vehicle id="type1_274" type="type1" route="ws" depart="412.098649308135" />
<vehicle id="type1_275" type="type1" route="ne" depart="414.5680433838082" />
<vehicle id="type1_276" type="type1" route="es" depart="416.15927895609065" />
<vehicle id="type1_277" type="type1" route="ns" depart="416.43156672270726" />
<vehicle id="type1_278" type="type1" route="se" depart="417.66474072125817" />
<vehicle id="type1_279" type="type1" route="ns" depart="418.8775508215709" />
</routes>