<routes>
            <vType id="type1" accel="0.8" decel="4.5" sigma="0.5" length="5" maxSpeed="70"/>
            <vType id="rescue" vClass="emergency" speedFactor="1.5" guiShape="emergency">
                <param key="has.bluelight.device" value="true"/>
            </vType>
            <route id="ne" edges="ni eo"/>
            <route id="ns" edges="ni so"/>
            <route id="nw" edges="ni wo"/>
            <route id="en" edges="ei no"/>
            <route id="es" edges="ei so"/>
            <route id="ew" edges="ei wo"/>
            <route id="sn" edges="si no"/>
            <route id="se" edges="si eo"/>
            <route id="sw" edges="si wo"/>
            <route id="wn" edges="wi no"/>
            <route id="we" edges="wi eo"/>
            <route id="ws" edges="wi so"/>
        <vehicle id="type1_1" type="type1" route="wn" depart="0.20205270452717689" />
<vehicle id="type1_2" type="type1" route="sn" depart="1.3095273601031767" />
<vehicle id="type1_3" type="type1" route="en" depart="2.971732582235098" />
<vehicle id="type1_4" type="type1" route="sn" depart="3.3303361836972307" />
<vehicle id="type1_5" type="type1" route="we" depart="6.182612226059808" />
<vehicle id="type1_6" type="type1" route="ne" depart="8.943658444609103" />
<vehicle id="type1_7" type="type1" route="ew" depart="9.513549962471485" />
<vehicle id="emv_1" type="rescue" route="ws" depart="11.119159587622192" />
<vehicle id="type1_8" type="type1" route="ne" depart="13.257917559811721" />
<vehicle id="type1_9" type="type1" route="nw" depart="14.428216359125068" />
<vehicle id="type1_10" type="type1" route="se" depart="14.730072648872467" />
<vehicle id="type1_11" type="type1" route="we" depart="15.362584640163567" />
<vehicle id="type1_12" type="type1" route="nw" depart="16.022053070387066" />
<vehicle id="type1_13" type="type1" route="we" depart="17.969219203332635" />
<vehicle id="type1_14" type="type1" route="sn" depart="18.809140293492497" />
<vehicle id="emv_2" type="rescue" route="en" depart="19.56463035525367" />
<vehicle id="type1_15" type="type1" route="wn" depart="19.91203404840782" />
<vehicle id="type1_16" type="type1" route="wn" depart="20.312498105411013" />
<vehicle id="type1_17" type="type1" route="nw" depart="21.68352643911409" />
<vehicle id="type1_18" type="type1" route="es" depart="22.271245072822943" />
<vehicle id="type1_19" type="type1" route="en" depart="22.80523548603605" />
<vehicle id="type1_20" type="type1" route="sw" depart="25.296216262019307" />
<vehicle id="type1_21" type="type1" route="sn" depart="25.828005379354604" />
<vehicle id="type1_22" type="type1" route="wn" depart="25.994511877240008" />
<vehicle id="type1_23" type="type1" route="sw" depart="33.809446172306444" />
<vehicle id="emv_3" type="rescue" route="en" depart="34.39961858793963" />
<vehicle id="type1_24" type="type1" route="en" depart="34.55227688164827" />
<vehicle id="type1_25" type="type1" route="sn" depart="35.8161956791838" />
<vehicle id="type1_26" type="type1" route="wn" depart="37.12331361066258" />
<vehicle id="type1_27" type="type1" route="sw" depart="39.647800656625755" />
<vehicle id="type1_28" type="type1" route="ns" depart="40.892447872403515" />
<vehicle id="type1_29" type="type1" route="wn" depart="41.518547631683504" />
<vehicle id="type1_30" type="type1" route="wn" depart="41.67035840745561" />
<vehicle id="type1_31" type="type1" route="ns" depart="41.91817969072854" />
<vehicle id="type1_32" type="type1" route="en" depart="42.126738684375084" />
<vehicle id="emv_4" type="rescue" route="se" depart="42.225603576168254" />
<vehicle id="type1_33" type="type1" route="sn" depart="43.488071181174405" />
<vehicle id="type1_34" type="type1" route="es" depart="45.32109166863246" />
<vehicle id="type1_35" type="type1" route="sw" depart="46.53526228343174" />
<vehicle id="type1_36" type="type1" route="ns" depart="50.205299544416235" />
<vehicle id="type1_37" type="type1" route="es" depart="52.08070358708328" />
<vehicle id="type1_38" type="type1" route="we" depart="52.86712503416025" />
<vehicle id="type1_39" type="type1" route="nw" depart="54.819263013021846" />
<vehicle id="type1_40" type="type1" route="sn" depart="56.356500605979726" />
<vehicle id="type1_41" type="type1" route="ew" depart="56.71285963207205" />
<vehicle id="type1_42" type="type1" route="ne" depart="57.39787986665521" />
<vehicle id="type1_43" type="type1" route="ne" depart="58.40722110949972" />
<vehicle id="type1_44" type="type1" route="ew" depart="58.729611580102706" />
<vehicle id="type1_45" type="type1" route="es" depart="60.13600734152359" />
<vehicle id="type1_46" type="type1" route="wn" depart="60.28559998820113" />
<vehicle id="type1_47" type="type1" route="sn" depart="60.37494322309885" />
<vehicle id="type1_48" type="type1" route="en" depart="60.38638935939785" />
<vehicle id="type1_49" type="type1" route="es" depart="61.423144560602935" />
<vehicle id="type1_50" type="type1" route="wn" depart="62.57052024995379" />
<vehicle id="type1_51" type="type1" route="nw" depart="64.08585610230848" />
<vehicle id="type1_52" type="type1" route="sn" depart="65.63031464318877" />
<vehicle id="type1_53" type="type1" route="nw" depart="67.6539960988077" />
<vehicle id="type1_54" type="type1" route="wn" depart="68.73724856780854" />
<vehicle id="type1_55" type="type1" route="se" depart="69.37518720715585" />
<vehicle id="type1_56" type="type1" route="nw" depart="69.7190551404732" />
<vehicle id="emv_5" type="rescue" route="ns" depart="70.59905702370185" />
<vehicle id="type1_57" type="type1" route="se" depart="71.10319485390045" />
<vehicle id="type1_58" type="type1" route="ne" depart="71.69249360115283" />
<vehicle id="type1_59" type="type1" route="ns" depart="71.73508859984148" />
<vehicle id="type1_60" type="type1" route="ns" depart="71.84844241368262" />
<vehicle id="type1_61" type="type1" route="wn" depart="73.97285859811794" />
<vehicle id="type1_62" type="type1" route="sn" depart="75.33897286594794" />
<vehicle id="type1_63" type="type1" route="se" depart="76.41662053089844" />
<vehicle id="type1_64" type="type1" route="sn" depart="76.5814199545841" />
<vehicle id="type1_65" type="type1" route="es" depart="76.94055205317387" />
<vehicle id="type1_66" type="type1" route="ws" depart="79.36494078576025" />
<vehicle id="type1_67" type="type1" route="ew" depart="81.02510166116474" />
<vehicle id="type1_68" type="type1" route="sw" depart="81.12118541640451" />
<vehicle id="type1_69" type="type1" route="en" depart="81.19170468135421" />
<vehicle id="type1_70" type="type1" route="ne" depart="81.48430214922917" />
<vehicle id="type1_71" type="type1" route="we" depart="81.70583453561972" />
<vehicle id="type1_72" type="type1" route="wn" depart="82.55941438309333" />
<vehicle id="type1_73" type="type1" route="sn" depart="84.38177591087293" />
<vehicle id="emv_6" type="rescue" route="ns" depart="84.61644237991635" />
<vehicle id="type1_74" type="type1" route="se" depart="86.8370254844343" />
<vehicle id="type1_75" type="type1" route="en" depart="87.66855763450108" />
<vehicle id="type1_76" type="type1" route="ns" depart="88.60745032351657" />
<vehicle id="type1_77" type="type1" route="sw" depart="88.84389564660061" />
<vehicle id="emv_7" type="rescue" route="ns" depart="92.05866211084093" />
<vehicle id="type1_78" type="type1" route="es" depart="95.24389976643481" />
<vehicle id="type1_79" type="type1" route="sn" depart="95.7079672601978" />
<vehicle id="type1_80" type="type1" route="wn" depart="96.4663341587698" />
<vehicle id="emv_8" type="rescue" route="en" depart="96.7585095831304" />
<vehicle id="type1_81" type="type1" route="nw" depart="97.77454715366329" />
<vehicle id="type1_82" type="type1" route="en" depart="99.49993341534254" />
<vehicle id="type1_83" type="type1" route="ns" depart="100.31407861736" />
<vehicle id="type1_84" type="type1" route="es" depart="100.59173030646843" />
<vehicle id="type1_85" type="type1" route="sn" depart="103.40269441415964" />
<vehicle id="type1_86" type="type1" route="ws" depart="104.63761905629214" />
<vehicle id="type1_87" type="type1" route="ws" depart="105.58960001903436" />
<vehicle id="type1_88" type="type1" route="we" depart="107.54091421367137" />
<vehicle id="type1_89" type="type1" route="en" depart="108.83596408101084" />
<vehicle id="type1_90" type="type1" route="ew" depart="109.1789593976687" />
<vehicle id="type1_91" type="type1" route="we" depart="110.07414618799287" />
<vehicle id="type1_92" type="type1" route="se" depart="110.67311920989577" />
<vehicle id="type1_93" type="type1" route="se" depart="117.70965545715838" />
<vehicle id="type1_94" type="type1" route="we" depart="121.84956240792711" />
<vehicle id="type1_95" type="type1" route="se" depart="123.7292144203899" />
<vehicle id="type1_96" type="type1" route="ne" depart="125.47535030578764" />
<vehicle id="type1_97" type="type1" route="ew" depart="125.92952793263454" />
<vehicle id="type1_98" type="type1" route="en" depart="126.44686150998213" />
<vehicle id="type1_99" type="type1" route="es" depart="127.25942523905954" />
<vehicle id="type1_100" type="type1" route="es" depart="127.73898523484515" />
<vehicle id="type1_101" type="type1" route="sw" depart="128.23209031753234" />
<vehicle id="type1_102" type="type1" route="se" depart="132.27365302628002" />
<vehicle id="type1_103" type="type1" route="ew" depart="132.45295874087248" />
<vehicle id="type1_104" type="type1" route="es" depart="135.01960344225472" />
<vehicle id="type1_105" type="type1" route="sn" depart="135.92593338520535" />
<vehicle id="type1_106" type="type1" route="wn" depart="136.29445353261124" />
<vehicle id="type1_107" type="type1" route="ws" depart="137.55477392795163" />
<vehicle id="type1_108" type="type1" route="ew" depart="137.68374748214646" />
<vehicle id="type1_109" type="type1" route="se" depart="139.67502052653097" />
<vehicle id="emv_9" type="rescue" route="nw" depart="139.91178059273705" />
<vehicle id="type1_110" type="type1" route="se" depart="145.8052985160101" />
<vehicle id="type1_111" type="type1" route="ns" depart="146.73906412748838" />
<vehicle id="type1_112" type="type1" route="ws" depart="151.39392896621436" />
<vehicle id="type1_113" type="type1" route="ne" depart="151.3969852735904" />
<vehicle id="type1_114" type="type1" route="we" depart="155.83811603196628" />
<vehicle id="type1_115" type="type1" route="ws" depart="156.40715098639646" />
<vehicle id="type1_116" type="type1" route="ew" depart="157.3370548357489" />
<vehicle id="type1_117" type="type1" route="nw" depart="157.33707383143587" />
<vehicle id="type1_118" type="type1" route="es" depart="158.47677661661407" />
<vehicle id="type1_119" type="type1" route="ne" depart="159.3744480396895" />
<vehicle id="type1_120" type="type1" route="ws" depart="159.43940153528942" />
<vehicle id="type1_121" type="type1" route="se" depart="160.03039673131866" />
<vehicle id="emv_10" type="rescue" route="wn" depart="162.0198443471192" />
<vehicle id="type1_122" type="type1" route="wn" depart="162.79774031341577" />
<vehicle id="type1_123" type="type1" route="en" depart="163.42148438258394" />
<vehicle id="type1_124" type="type1" route="wn" depart="163.76117850535" />
<vehicle id="type1_125" type="type1" route="wn" depart="164.07810846750007" />
<vehicle id="type1_126" type="type1" route="ew" depart="166.1393267196369" />
<vehicle id="type1_127" type="type1" route="we" depart="166.70450683334312" />
<vehicle id="type1_128" type="type1" route="ne" depart="167.1088195761127" />
<vehicle id="type1_129" type="type1" route="ew" depart="172.32944415370497" />
<vehicle id="type1_130" type="type1" route="se" depart="172.64973843256533" />
<vehicle id="type1_131" type="type1" route="we" depart="172.6989916157477" />
<vehicle id="type1_132" type="type1" route="nw" depart="175.41532013314975" />
<vehicle id="emv_11" type="rescue" route="ew" depart="175.82357857755738" />
<vehicle id="type1_133" type="type1" route="ne" depart="176.11222912027563" />
<vehicle id="type1_134" type="type1" route="sw" depart="176.82303535074885" />
<vehicle id="type1_135" type="type1" route="ew" depart="176.89465280490992" />
<vehicle id="type1_136" type="type1" route="sn" depart="176.98881166168624" />
<vehicle id="type1_137" type="type1" route="ew" depart="178.34457232048717" />
<vehicle id="type1_138" type="type1" route="sn" depart="179.5121212064046" />
<vehicle id="type1_139" type="type1" route="wn" depart="180.58141990523305" />
<vehicle id="emv_12" type="rescue" route="sn" depart="181.3620686074561" />
<vehicle id="type1_140" type="type1" route="nw" depart="185.06368202182855" />
<vehicle id="type1_141" type="type1" route="se" depart="185.26156736377257" />
<vehicle id="emv_13" type="rescue" route="ew" depart="186.06725172863798" />
<vehicle id="type1_142" type="type1" route="sw" depart="186.1006764575848" />
<vehicle id="type1_143" type="type1" route="en" depart="188.3319892470413" />
<vehicle id="type1_144" type="type1" route="we" depart="188.3440908112621" />
<vehicle id="type1_145" type="type1" route="nw" depart="191.44703526258476" />
<vehicle id="type1_146" type="type1" route="en" depart="195.49154142020703" />
<vehicle id="type1_147" type="type1" route="ew" depart="197.32312518338114" />
<vehicle id="type1_148" type="type1" route="ne" depart="197.34053621879397" />
<vehicle id="type1_149" type="type1" route="nw" depart="198.02150181548495" />
<vehicle id="type1_150" type="type1" route="en" depart="199.31278443417446" />
<vehicle id="type1_151" type="type1" route="nw" depart="200.38849433913893" />
<vehicle id="type1_152" type="type1" route="wn" depart="203.04288635216233" />
<vehicle id="type1_153" type="type1" route="nw" depart="206.01767662928347" />
<vehicle id="type1_154" type="type1" route="ne" depart="206.6185118748743" />
<vehicle id="type1_155" type="type1" route="se" depart="206.6916089034566" />
<vehicle id="type1_156" type="type1" route="en" depart="208.63222218290568" />
<vehicle id="type1_157" type="type1" route="nw" depart="211.28760738644698" />
<vehicle id="type1_158" type="type1" route="sn" depart="211.35033788138486" />
<vehicle id="type1_159" type="type1" route="ew" depart="211.66938808533962" />
<vehicle id="type1_160" type="type1" route="nw" depart="213.42527186598878" />
<vehicle id="type1_161" type="type1" route="nw" depart="213.46125986880566" />
<vehicle id="type1_162" type="type1" route="se" depart="214.2554136775557" />
<vehicle id="type1_163" type="type1" route="we" depart="218.35405735429677" />
<vehicle id="emv_14" type="rescue" route="se" depart="220.12310863195725" />
<vehicle id="emv_15" type="rescue" route="se" depart="225.25224048192982" />
<vehicle id="type1_164" type="type1" route="ns" depart="225.36873851847682" />
<vehicle id="type1_165" type="type1" route="se" depart="225.56662321983336" />
<vehicle id="type1_166" type="type1" route="es" depart="226.0590349751689" />
<vehicle id="type1_167" type="type1" route="sw" depart="229.01546166318408" />
<vehicle id="type1_168" type="type1" route="ns" depart="230.5347745061852" />
<vehicle id="type1_169" type="type1" route="sw" depart="230.61330120458135" />
<vehicle id="type1_170" type="type1" route="wn" depart="230.71423682920545" />
<vehicle id="type1_171" type="type1" route="es" depart="231.290036857082" />
<vehicle id="emv_16" type="rescue" route="nw" depart="231.70729428843637" />
<vehicle id="type1_172" type="type1" route="se" depart="232.56829335553437" />
<vehicle id="type1_173" type="type1" route="ns" depart="233.8851319715304" />
<vehicle id="type1_174" type="type1" route="sn" depart="236.17032184421953" />
<vehicle id="type1_175" type="type1" route="se" depart="237.33410315885118" />
<vehicle id="type1_176" type="type1" route="es" depart="237.37841017169032" />
<vehicle id="type1_177" type="type1" route="en" depart="237.97066016066043" />
<vehicle id="type1_178" type="type1" route="sw" depart="239.48513779652183" />
<vehicle id="type1_179" type="type1" route="ns" depart="240.71770418705344" />
<vehicle id="type1_180" type="type1" route="ne" depart="241.31982172847344" />
<vehicle id="type1_181" type="type1" route="se" depart="241.92144169817354" />
<vehicle id="type1_182" type="type1" route="nw" depart="242.16213735793295" />
<vehicle id="type1_183" type="type1" route="ew" depart="242.51545742669302" />
<vehicle id="emv_17" type="rescue" route="sn" depart="243.7108452746155" />
<vehicle id="type1_184" type="type1" route="nw" depart="243.8911356220811" />
<vehicle id="type1_185" type="type1" route="nw" depart="244.62600582852374" />
<vehicle id="type1_186" type="type1" route="en" depart="246.35528606369795" />
<vehicle id="type1_187" type="type1" route="en" depart="247.31025927895774" />
<vehicle id="type1_188" type="type1" route="sw" depart="247.49914627965205" />
<vehicle id="type1_189" type="type1" route="se" depart="248.3981316455636" />
<vehicle id="type1_190" type="type1" route="ne" depart="251.73735313758849" />
<vehicle id="type1_191" type="type1" route="ns" depart="252.90636011150755" />
<vehicle id="type1_192" type="type1" route="ne" depart="255.10770667456168" />
<vehicle id="type1_193" type="type1" route="nw" depart="255.94539714841528" />
<vehicle id="type1_194" type="type1" route="se" depart="262.4411397063457" />
<vehicle id="type1_195" type="type1" route="we" depart="262.6413596415139" />
<vehicle id="type1_196" type="type1" route="we" depart="263.3687167802552" />
<vehicle id="type1_197" type="type1" route="se" depart="263.388097338508" />
<vehicle id="type1_198" type="type1" route="sw" depart="263.74879419109016" />
<vehicle id="type1_199" type="type1" route="ws" depart="264.07087539253985" />
<vehicle id="type1_200" type="type1" route="sn" depart="264.5884949566583" />
<vehicle id="type1_201" type="type1" route="nw" depart="265.4836379507686" />
<vehicle id="type1_202" type="type1" route="we" depart="266.68713799182837" />
<vehicle id="type1_203" type="type1" route="ws" depart="268.7365425032619" />
<vehicle id="type1_204" type="type1" route="we" depart="268.74123059521105" />
<vehicle id="type1_205" type="type1" route="es" depart="269.2808582301843" />
<vehicle id="type1_206" type="type1" route="ns" depart="270.28018423748927" />
<vehicle id="type1_207" type="type1" route="nw" depart="275.0951021659128" />
<vehicle id="type1_208" type="type1" route="sw" depart="278.31933853601714" />
<vehicle id="type1_209" type="type1" route="ns" depart="278.9221418936368" />
<vehicle id="type1_210" type="type1" route="es" depart="278.9299228267776" />
<vehicle id="type1_211" type="type1" route="ew" depart="279.41814494630603" />
<vehicle id="type1_212" type="type1" route="wn" depart="281.4585173559562" />
<vehicle id="type1_213" type="type1" route="sw" depart="283.085290670338" />
<vehicle id="type1_214" type="type1" route="sw" depart="283.27742133214525" />
<vehicle id="type1_215" type="type1" route="ne" depart="284.44813351789674" />
<vehicle id="type1_216" type="type1" route="wn" depart="284.98246663518114" />
<vehicle id="type1_217" type="type1" route="en" depart="286.52833043088197" />
<vehicle id="type1_218" type="type1" route="en" depart="289.44016276545483" />
<vehicle id="type1_219" type="type1" route="ws" depart="289.62011266818456" />
<vehicle id="type1_220" type="type1" route="nw" depart="289.6260380109164" />
<vehicle id="type1_221" type="type1" route="ew" depart="292.9094909797094" />
<vehicle id="type1_222" type="type1" route="ws" depart="293.0567373098303" />
<vehicle id="type1_223" type="type1" route="es" depart="294.6568356045147" />
<vehicle id="type1_224" type="type1" route="sn" depart="295.74067766612393" />
<vehicle id="type1_225" type="type1" route="we" depart="296.8684794830988" />
<vehicle id="type1_226" type="type1" route="se" depart="297.21283418754894" />
<vehicle id="type1_227" type="type1" route="sn" depart="298.10494386970106" />
<vehicle id="type1_228" type="type1" route="ws" depart="299.4209358794228" />
<vehicle id="type1_229" type="type1" route="nw" depart="303.5796898991796" />
<vehicle id="type1_230" type="type1" route="we" depart="305.0570341257637" />
<vehicle id="type1_231" type="type1" route="ne" depart="305.11909434484954" />
<vehicle id="type1_232" type="type1" route="se" depart="305.29965532856005" />
<vehicle id="type1_233" type="type1" route="ws" depart="305.71204991261425" />
<vehicle id="type1_234" type="type1" route="en" depart="307.12150200435616" />
<vehicle id="type1_235" type="type1" route="ew" depart="311.0125382394211" />
<vehicle id="type1_236" type="type1" route="wn" depart="313.4854766780764" />
<vehicle id="type1_237" type="type1" route="sw" depart="314.36430804804814" />
<vehicle id="emv_18" type="rescue" route="we" depart="316.0405650435112" />
<vehicle id="type1_238" type="type1" route="ws" depart="318.03859938479246" />
<vehicle id="type1_239" type="type1" route="nw" depart="318.8106920949651" />
<vehicle id="type1_240" type="type1" route="ne" depart="319.18497661502334" />
<vehicle id="type1_241" type="type1" route="sw" depart="319.8919398259616" />
<vehicle id="type1_242" type="type1" route="se" depart="320.5153596111017" />
<vehicle id="type1_243" type="type1" route="ns" depart="320.8126277174736" />
<vehicle id="type1_244" type="type1" route="ws" depart="321.7687358750555" />
<vehicle id="emv_19" type="rescue" route="ne" depart="321.99511779208143" />
<vehicle id="type1_245" type="type1" route="ew" depart="322.15608346585776" />
<vehicle id="type1_246" type="type1" route="we" depart="324.8962792173326" />
<vehicle id="type1_247" type="type1" route="wn" depart="325.35154730386836" />
<vehicle id="type1_248" type="type1" route="ws" depart="325.4340736945131" />
<vehicle id="type1_249" type="type1" route="ns" depart="326.1798428874262" />
<vehicle id="type1_250" type="type1" route="ew" depart="328.91968440842834" />
<vehicle id="type1_251" type="type1" route="se" depart="333.98453538590593" />
<vehicle id="type1_252" type="type1" route="ws" depart="335.3996291335215" />
<vehicle id="type1_253" type="type1" route="we" depart="335.4607949113089" />
<vehicle id="type1_254" type="type1" route="ws" depart="335.5926594523044" />
<vehicle id="emv_20" type="rescue" route="we" depart="340.21544287788885" />
<vehicle id="type1_255" type="type1" route="en" depart="340.9475576354305" />
<vehicle id="type1_256" type="type1" route="se" depart="344.85797711530444" />
<vehicle id="type1_257" type="type1" route="sw" depart="345.64452343156205" />
<vehicle id="type1_258" type="type1" route="we" depart="346.9595435372465" />
<vehicle id="type1_259" type="type1" route="we" depart="347.1396286168618" />
<vehicle id="emv_21" type="rescue" route="en" depart="350.34945310569276" />
<vehicle id="type1_260" type="type1" route="sw" depart="350.47724718741597" />
<vehicle id="type1_261" type="type1" route="nw" depart="354.28392462782244" />
<vehicle id="type1_262" type="type1" route="wn" depart="356.91530997854426" />
<vehicle id="type1_263" type="type1" route="ns" depart="357.45859166529345" />
<vehicle id="type1_264" type="type1" route="sn" depart="363.4570403027355" />
<vehicle id="type1_265" type="type1" route="en" depart="366.98594814774503" />
<vehicle id="type1_266" type="type1" route="sn" depart="369.23325656377887" />
<vehicle id="type1_267" type="type1" route="nw" depart="370.438403467203" />
<vehicle id="type1_268" type="type1" route="we" depart="371.0218128806104" />
<vehicle id="type1_269" type="type1" route="ew" depart="371.64428747028967" />
<vehicle id="type1_270" type="type1" route="es" depart="371.9485255020547" />
<vehicle id="type1_271" type="type1" route="sn" depart="372.7025365333944" />
<vehicle id="type1_272" type="type1" route="ew" depart="373.2328049996838" />
<vehicle id="type1_273" type="type1" route="we" depart="376.0721820079986" />
<vehicle id="type1_274" type="type1" route="ws" depart="376.57142193384334" />
<vehicle id="type1_275" type="type1" route="ne" depart="376.7527512649074" />
<vehicle id="type1_276" type="type1" route="es" depart="377.8743232894856" />
<vehicle id="type1_277" type="type1" route="ns" depart="379.6822800945989" />
<vehicle id="type1_278" type="type1" route="se" depart="379.7146058470708" />
<vehicle id="type1_279" type="type1" route="ns" depart="381.33780116726564" />
</routes>