<routes>
            <vType id="type1" accel="0.8" decel="4.5" sigma="0.5" length="5" maxSpeed="70"/>
            <vType id="rescue" vClass="emergency" speedFactor="1.5" guiShape="emergency">
                <param key="has.bluelight.device" value="true"/>
            </vType>
            <route id="ne" edges="ni eo"/>
            <route id="ns" edges="ni so"/>
            <route id="nw" edges="ni wo"/>
            <route id="en" edges="ei no"/>
            <route id="es" edges="ei so"/>
            <route id="ew" edges="ei wo"/>
            <route id="sn" edges="si no"/>
            <route id="se" edges="si eo"/>
            <route id="sw" edges="si wo"/>
            <route id="wn" edges="wi no"/>
            <route id="we" edges="wi eo"/>
            <route id="ws" edges="wi so"/>
        
            <personFlow id="p_sn" begin="0" end="600" period="50">
                <walk route="sn"/>
            </personFlow>
                         
            <personFlow id="p_ew" begin="0" end="600" period="50">
                <walk route="ew"/>
            </personFlow>
                         
            <personFlow id="p_ns" begin="0" end="600" period="50">
                <walk route="ns"/>
            </personFlow>
                         
            <personFlow id="p_we" begin="0" end="600" period="50">
                <walk route="we"/>
            </personFlow>
                         <vehicle id="type1_1" type="type1" route="se" depart="0.2737664422910233" />
<vehicle id="type1_2" type="type1" route="we" depart="0.6500570352042998" />
<vehicle id="type1_3" type="type1" route="nw" depart="0.6808072359801697" />
<vehicle id="type1_4" type="type1" route="se" depart="0.6809010500038629" />
<vehicle id="type1_5" type="type1" route="ne" depart="0.8878325967527377" />
<vehicle id="type1_6" type="type1" route="we" depart="1.543381971021935" />
<vehicle id="type1_7" type="type1" route="ws" depart="2.1067539648121762" />
<vehicle id="emv_1" type="rescue" route="nw" depart="3.2451483649342894" />
<vehicle id="type1_8" type="type1" route="sn" depart="3.4892706301471277" />
<vehicle id="type1_9" type="type1" route="ws" depart="4.769467955604393" />
<vehicle id="type1_10" type="type1" route="en" depart="5.121151771713461" />
<vehicle id="type1_11" type="type1" route="ws" depart="5.2268661631778555" />
<vehicle id="type1_12" type="type1" route="es" depart="5.565412400279522" />
<vehicle id="type1_13" type="type1" route="nw" depart="5.923331804696485" />
<vehicle id="type1_14" type="type1" route="es" depart="5.969648230106037" />
<vehicle id="type1_15" type="type1" route="ew" depart="5.9813458141045235" />
<vehicle id="type1_16" type="type1" route="wn" depart="6.096781500437426" />
<vehicle id="type1_17" type="type1" route="we" depart="7.382434259096274" />
<vehicle id="type1_18" type="type1" route="ns" depart="10.098015247431505" />
<vehicle id="type1_19" type="type1" route="ws" depart="11.1392346559226" />
<vehicle id="type1_20" type="type1" route="en" depart="11.419987370940264" />
<vehicle id="type1_21" type="type1" route="es" depart="12.990466183857887" />
<vehicle id="type1_22" type="type1" route="ns" depart="13.856476843868677" />
<vehicle id="type1_23" type="type1" route="ew" depart="14.508349711593976" />
<vehicle id="type1_24" type="type1" route="we" depart="14.826364431338126" />
<vehicle id="type1_25" type="type1" route="ne" depart="15.821345339967905" />
<vehicle id="type1_26" type="type1" route="we" depart="17.26845079758014" />
<vehicle id="type1_27" type="type1" route="ws" depart="19.532303950714525" />
<vehicle id="type1_28" type="type1" route="sn" depart="19.811015825697822" />
<vehicle id="type1_29" type="type1" route="nw" depart="19.865189628164913" />
<vehicle id="type1_30" type="type1" route="ne" depart="21.026736197570454" />
<vehicle id="type1_31" type="type1" route="en" depart="21.046255610332853" />
<vehicle id="type1_32" type="type1" route="ne" depart="21.288131135026536" />
<vehicle id="type1_33" type="type1" route="ne" depart="21.388816086948108" />
<vehicle id="type1_34" type="type1" route="ws" depart="22.728269227119995" />
<vehicle id="type1_35" type="type1" route="ne" depart="24.011130612419628" />
<vehicle id="type1_36" type="type1" route="wn" depart="24.0529538957996" />
<vehicle id="type1_37" type="type1" route="es" depart="24.719250844867663" />
<vehicle id="type1_38" type="type1" route="es" depart="25.012995097175974" />
<vehicle id="type1_39" type="type1" route="sn" depart="25.97895652094962" />
<vehicle id="type1_40" type="type1" route="ws" depart="26.700087198916478" />
<vehicle id="type1_41" type="type1" route="we" depart="26.886857021776663" />
<vehicle id="type1_42" type="type1" route="ws" depart="27.05041613919691" />
<vehicle id="type1_43" type="type1" route="en" depart="27.903297607092313" />
<vehicle id="type1_44" type="type1" route="sw" depart="28.307940233669243" />
<vehicle id="type1_45" type="type1" route="ew" depart="28.59174610753244" />
<vehicle id="type1_46" type="type1" route="sw" depart="29.178686488097938" />
<vehicle id="type1_47" type="type1" route="nw" depart="29.94295326917302" />
<vehicle id="type1_48" type="type1" route="ws" depart="30.507821839405775" />
<vehicle id="type1_49" type="type1" route="se" depart="32.64241365040701" />
<vehicle id="type1_50" type="type1" route="sw" depart="34.87914063932652" />
<vehicle id="type1_51" type="type1" route="ns" depart="35.068132668401084" />
<vehicle id="type1_52" type="type1" route="nw" depart="35.39983451211005" />
<vehicle id="type1_53" type="type1" route="en" depart="35.67077572065417" />
<vehicle id="type1_54" type="type1" route="ne" depart="36.432050130848395" />
<vehicle id="type1_55" type="type1" route="wn" depart="38.27927815205502" />
<vehicle id="type1_56" type="type1" route="nw" depart="40.123909164659814" />
<vehicle id="type1_57" type="type1" route="se" depart="40.20892046644337" />
<vehicle id="type1_58" type="type1" route="sw" depart="41.74230889377121" />
<vehicle id="type1_59" type="type1" route="es" depart="44.196625139888454" />
<vehicle id="type1_60" type="type1" route="wn" depart="44.64733895369027" />
<vehicle id="type1_61" type="type1" route="ns" depart="44.870056731662835" />
<vehicle id="type1_62" type="type1" route="sn" depart="45.18158252906497" />
<vehicle id="type1_63" type="type1" route="wn" depart="45.3114814933772" />
<vehicle id="type1_64" type="type1" route="sn" depart="45.38011148619557" />
<vehicle id="type1_65" type="type1" route="sn" depart="45.74574411363872" />
<vehicle id="type1_66" type="type1" route="sw" depart="45.78064995200843" />
<vehicle id="type1_67" type="type1" route="ns" depart="46.25132179044171" />
<vehicle id="type1_68" type="type1" route="we" depart="46.40561352531065" />
<vehicle id="type1_69" type="type1" route="sn" depart="47.36885395005477" />
<vehicle id="type1_70" type="type1" route="ew" depart="47.91045179912748" />
<vehicle id="type1_71" type="type1" route="ew" depart="48.31435872252489" />
<vehicle id="type1_72" type="type1" route="se" depart="48.537416235311404" />
<vehicle id="type1_73" type="type1" route="ne" depart="48.660218274446294" />
<vehicle id="type1_74" type="type1" route="ns" depart="49.033129888128634" />
<vehicle id="type1_75" type="type1" route="nw" depart="49.797142799378" />
<vehicle id="type1_76" type="type1" route="ns" depart="50.26878538249478" />
<vehicle id="type1_77" type="type1" route="se" depart="51.298253219344936" />
<vehicle id="type1_78" type="type1" route="ne" depart="52.52692432820798" />
<vehicle id="type1_79" type="type1" route="we" depart="53.422793590042396" />
<vehicle id="type1_80" type="type1" route="en" depart="53.55862209213731" />
<vehicle id="type1_81" type="type1" route="es" depart="54.265477480324364" />
<vehicle id="type1_82" type="type1" route="sn" depart="54.2874556620225" />
<vehicle id="type1_83" type="type1" route="nw" depart="55.64961665632078" />
<vehicle id="type1_84" type="type1" route="ns" depart="55.77973430154751" />
<vehicle id="type1_85" type="type1" route="nw" depart="56.91947467730954" />
<vehicle id="type1_86" type="type1" route="ew" depart="57.03878792021242" />
<vehicle id="type1_87" type="type1" route="sw" depart="57.675726417376104" />
<vehicle id="type1_88" type="type1" route="we" depart="57.68038735567252" />
<vehicle id="type1_89" type="type1" route="wn" depart="57.6997342235326" />
<vehicle id="emv_2" type="rescue" route="se" depart="57.90959398591921" />
<vehicle id="type1_90" type="type1" route="ew" depart="58.29074841918919" />
<vehicle id="type1_91" type="type1" route="es" depart="58.38149141207941" />
<vehicle id="type1_92" type="type1" route="ne" depart="62.63985983275197" />
<vehicle id="type1_93" type="type1" route="ew" depart="63.78915227164472" />
<vehicle id="type1_94" type="type1" route="ew" depart="63.92572106666012" />
<vehicle id="type1_95" type="type1" route="we" depart="64.24140177117671" />
<vehicle id="type1_96" type="type1" route="sn" depart="64.94381766253066" />
<vehicle id="type1_97" type="type1" route="we" depart="66.69594325580023" />
<vehicle id="type1_98" type="type1" route="ew" depart="67.3105853556295" />
<vehicle id="type1_99" type="type1" route="ws" depart="68.02492797020655" />
<vehicle id="type1_100" type="type1" route="ns" depart="68.42443279584299" />
<vehicle id="type1_101" type="type1" route="ws" depart="68.55007910953884" />
<vehicle id="type1_102" type="type1" route="ne" depart="70.02904546761486" />
<vehicle id="type1_103" type="type1" route="ew" depart="70.27579327487419" />
<vehicle id="type1_104" type="type1" route="en" depart="70.28974369606257" />
<vehicle id="type1_105" type="type1" route="ns" depart="71.49151692344982" />
<vehicle id="type1_106" type="type1" route="we" depart="72.72759632723009" />
<vehicle id="type1_107" type="type1" route="we" depart="73.37938514266922" />
<vehicle id="type1_108" type="type1" route="ew" depart="74.79487166826534" />
<vehicle id="type1_109" type="type1" route="es" depart="75.13486765724602" />
<vehicle id="type1_110" type="type1" route="ne" depart="76.24154525406695" />
<vehicle id="type1_111" type="type1" route="sw" depart="76.43008493475449" />
<vehicle id="type1_112" type="type1" route="ns" depart="76.57553487446637" />
<vehicle id="type1_113" type="type1" route="ew" depart="76.60258649189701" />
<vehicle id="type1_114" type="type1" route="es" depart="76.78527087987005" />
<vehicle id="type1_115" type="type1" route="en" depart="77.81952883016898" />
<vehicle id="type1_116" type="type1" route="nw" depart="78.60204082111854" />
<vehicle id="type1_117" type="type1" route="se" depart="78.77872818050174" />
<vehicle id="type1_118" type="type1" route="es" depart="79.47473906016873" />
<vehicle id="type1_119" type="type1" route="sn" depart="80.2520459018646" />
<vehicle id="type1_120" type="type1" route="se" depart="80.3782873913107" />
<vehicle id="type1_121" type="type1" route="wn" depart="80.38011031271084" />
<vehicle id="type1_122" type="type1" route="es" depart="80.4775824969052" />
<vehicle id="type1_123" type="type1" route="se" depart="82.21663374638737" />
<vehicle id="type1_124" type="type1" route="ew" depart="83.44688063109331" />
<vehicle id="type1_125" type="type1" route="nw" depart="83.59661325988135" />
<vehicle id="type1_126" type="type1" route="sw" depart="83.61194205140124" />
<vehicle id="type1_127" type="type1" route="ws" depart="84.05191365874893" />
<vehicle id="type1_128" type="type1" route="sw" depart="84.13897571382844" />
<vehicle id="emv_3" type="rescue" route="ws" depart="84.38126049960516" />
<vehicle id="type1_129" type="type1" route="sw" depart="84.42256523544775" />
<vehicle id="type1_130" type="type1" route="ew" depart="84.66936368525786" />
<vehicle id="type1_131" type="type1" route="es" depart="85.504399960002" />
<vehicle id="emv_4" type="rescue" route="wn" depart="85.98752713691115" />
<vehicle id="type1_132" type="type1" route="se" depart="86.03749300700647" />
<vehicle id="type1_133" type="type1" route="ns" depart="86.18040289096473" />
<vehicle id="type1_134" type="type1" route="sn" depart="86.6271897406767" />
<vehicle id="type1_135" type="type1" route="we" depart="89.11916835882876" />
<vehicle id="type1_136" type="type1" route="we" depart="91.95248417264982" />
<vehicle id="type1_137" type="type1" route="wn" depart="92.5173121160919" />
<vehicle id="type1_138" type="type1" route="se" depart="93.89185677894604" />
<vehicle id="type1_139" type="type1" route="ew" depart="94.44224420117138" />
<vehicle id="type1_140" type="type1" route="we" depart="95.7311669266428" />
<vehicle id="type1_141" type="type1" route="se" depart="95.7336774046526" />
<vehicle id="type1_142" type="type1" route="se" depart="95.7969349968722" />
<vehicle id="type1_143" type="type1" route="en" depart="96.86041840312936" />
<vehicle id="type1_144" type="type1" route="ns" depart="97.04061187154664" />
<vehicle id="type1_145" type="type1" route="se" depart="97.69579302578731" />
<vehicle id="type1_146" type="type1" route="ns" depart="98.45679193932475" />
<vehicle id="type1_147" type="type1" route="en" depart="98.59144878890135" />
<vehicle id="type1_148" type="type1" route="sn" depart="99.6031724857441" />
<vehicle id="type1_149" type="type1" route="wn" depart="100.24332165670278" />
<vehicle id="type1_150" type="type1" route="se" depart="101.0554073974801" />
<vehicle id="emv_5" type="rescue" route="ws" depart="101.08567026715437" />
<vehicle id="type1_151" type="type1" route="wn" depart="101.09209105843013" />
<vehicle id="type1_152" type="type1" route="ew" depart="102.40620728558305" />
<vehicle id="type1_153" type="type1" route="en" depart="102.84546823656532" />
<vehicle id="type1_154" type="type1" route="se" depart="103.12386521795557" />
<vehicle id="type1_155" type="type1" route="se" depart="104.04804506404219" />
<vehicle id="type1_156" type="type1" route="en" depart="104.94226816118817" />
<vehicle id="type1_157" type="type1" route="sn" depart="105.77844207036664" />
<vehicle id="type1_158" type="type1" route="en" depart="105.88045056727192" />
<vehicle id="type1_159" type="type1" route="ws" depart="106.52895038303436" />
<vehicle id="type1_160" type="type1" route="wn" depart="106.94572867263345" />
<vehicle id="type1_161" type="type1" route="ns" depart="109.72020183191448" />
<vehicle id="type1_162" type="type1" route="ws" depart="110.14800158304305" />
<vehicle id="type1_163" type="type1" route="wn" depart="110.65478134392023" />
<vehicle id="type1_164" type="type1" route="se" depart="110.86214648480124" />
<vehicle id="type1_165" type="type1" route="sw" depart="111.89681088145802" />
<vehicle id="type1_166" type="type1" route="nw" depart="112.58272682533759" />
<vehicle id="type1_167" type="type1" route="es" depart="112.68382288596993" />
<vehicle id="type1_168" type="type1" route="ew" depart="113.60726652182053" />
<vehicle id="type1_169" type="type1" route="en" depart="114.85806808350047" />
<vehicle id="type1_170" type="type1" route="ws" depart="115.0434180559906" />
<vehicle id="type1_171" type="type1" route="se" depart="115.29473680403909" />
<vehicle id="type1_172" type="type1" route="en" depart="116.59560716620223" />
<vehicle id="type1_173" type="type1" route="ne" depart="116.72639950586881" />
<vehicle id="type1_174" type="type1" route="ws" depart="117.60054743892101" />
<vehicle id="type1_175" type="type1" route="ws" depart="117.95044937016262" />
<vehicle id="type1_176" type="type1" route="sw" depart="118.17667771869264" />
<vehicle id="type1_177" type="type1" route="ws" depart="118.71492560163108" />
<vehicle id="type1_178" type="type1" route="es" depart="119.26823560609344" />
<vehicle id="type1_179" type="type1" route="ew" depart="119.564131443818" />
<vehicle id="type1_180" type="type1" route="we" depart="119.63763231616947" />
<vehicle id="type1_181" type="type1" route="es" depart="119.8085229393603" />
<vehicle id="type1_182" type="type1" route="ne" depart="120.18059848421008" />
<vehicle id="type1_183" type="type1" route="es" depart="120.23063137580229" />
<vehicle id="type1_184" type="type1" route="es" depart="122.01936583561373" />
<vehicle id="type1_185" type="type1" route="ws" depart="122.03645472619299" />
<vehicle id="type1_186" type="type1" route="ne" depart="123.56151832061074" />
<vehicle id="type1_187" type="type1" route="sw" depart="123.79929058269818" />
<vehicle id="type1_188" type="type1" route="nw" depart="123.83097169333568" />
<vehicle id="type1_189" type="type1" route="nw" depart="123.91430730687966" />
<vehicle id="type1_190" type="type1" route="nw" depart="123.93063670498735" />
<vehicle id="type1_191" type="type1" route="wn" depart="124.11884928750645" />
<vehicle id="type1_192" type="type1" route="en" depart="124.23402998602883" />
<vehicle id="type1_193" type="type1" route="wn" depart="124.83655843198598" />
<vehicle id="type1_194" type="type1" route="es" depart="125.0402025283304" />
<vehicle id="type1_195" type="type1" route="sw" depart="125.28756646042599" />
<vehicle id="type1_196" type="type1" route="sw" depart="125.38004051156561" />
<vehicle id="type1_197" type="type1" route="ne" depart="126.15002984481524" />
<vehicle id="type1_198" type="type1" route="sw" depart="126.21046526437385" />
<vehicle id="type1_199" type="type1" route="ew" depart="126.90093819121203" />
<vehicle id="type1_200" type="type1" route="wn" depart="127.0453312099518" />
<vehicle id="type1_201" type="type1" route="sn" depart="127.42693582529455" />
<vehicle id="type1_202" type="type1" route="sn" depart="127.83463290859764" />
<vehicle id="emv_6" type="rescue" route="en" depart="128.91867399043187" />
<vehicle id="type1_203" type="type1" route="sn" depart="128.93471931834205" />
<vehicle id="type1_204" type="type1" route="ws" depart="129.5920801585504" />
<vehicle id="type1_205" type="type1" route="ns" depart="129.6567530265028" />
<vehicle id="type1_206" type="type1" route="sw" depart="130.62358801295346" />
<vehicle id="type1_207" type="type1" route="en" depart="130.76118052527633" />
<vehicle id="type1_208" type="type1" route="sw" depart="131.83858085467017" />
<vehicle id="type1_209" type="type1" route="sn" depart="132.3195861072175" />
<vehicle id="type1_210" type="type1" route="se" depart="133.52648767836678" />
<vehicle id="type1_211" type="type1" route="ws" depart="134.5020235969873" />
<vehicle id="type1_212" type="type1" route="es" depart="134.53152593000928" />
<vehicle id="type1_213" type="type1" route="ne" depart="135.0230620007038" />
<vehicle id="type1_214" type="type1" route="se" depart="135.48160149387027" />
<vehicle id="type1_215" type="type1" route="se" depart="135.51343931658468" />
<vehicle id="type1_216" type="type1" route="sw" depart="136.7812627145339" />
<vehicle id="type1_217" type="type1" route="es" depart="136.8248290720402" />
<vehicle id="type1_218" type="type1" route="ns" depart="137.41003819314983" />
<vehicle id="type1_219" type="type1" route="en" depart="137.90196122032842" />
<vehicle id="type1_220" type="type1" route="sn" depart="138.63344909451237" />
<vehicle id="type1_221" type="type1" route="we" depart="141.1738447810128" />
<vehicle id="type1_222" type="type1" route="we" depart="141.35583654125483" />
<vehicle id="type1_223" type="type1" route="sn" depart="141.89302391263502" />
<vehicle id="type1_224" type="type1" route="sw" depart="142.55691857379531" />
<vehicle id="emv_7" type="rescue" route="es" depart="142.7530170806129" />
<vehicle id="type1_225" type="type1" route="ns" depart="143.41583669800548" />
<vehicle id="type1_226" type="type1" route="es" depart="144.46789663492757" />
<vehicle id="type1_227" type="type1" route="we" depart="145.33271861677082" />
<vehicle id="type1_228" type="type1" route="en" depart="145.3391620702465" />
<vehicle id="type1_229" type="type1" route="ew" depart="145.92693839973606" />
<vehicle id="type1_230" type="type1" route="sn" depart="146.39584192620336" />
<vehicle id="type1_231" type="type1" route="ne" depart="147.10261632586662" />
<vehicle id="type1_232" type="type1" route="nw" depart="147.57309920309015" />
<vehicle id="type1_233" type="type1" route="wn" depart="148.7095864429292" />
<vehicle id="type1_234" type="type1" route="we" depart="149.2614067738023" />
<vehicle id="type1_235" type="type1" route="ns" depart="150.83692772686305" />
<vehicle id="type1_236" type="type1" route="en" depart="151.1671369462095" />
<vehicle id="type1_237" type="type1" route="sn" depart="151.76085980869624" />
<vehicle id="type1_238" type="type1" route="en" depart="152.45620522195134" />
<vehicle id="type1_239" type="type1" route="nw" depart="153.66903693005014" />
<vehicle id="type1_240" type="type1" route="ws" depart="154.34472036127406" />
<vehicle id="type1_241" type="type1" route="ew" depart="157.02324688880805" />
<vehicle id="type1_242" type="type1" route="ew" depart="157.36117703539657" />
<vehicle id="type1_243" type="type1" route="ws" depart="158.76130583602415" />
<vehicle id="type1_244" type="type1" route="wn" depart="158.98155038570206" />
<vehicle id="type1_245" type="type1" route="ne" depart="159.18385630883668" />
<vehicle id="type1_246" type="type1" route="es" depart="159.54754966533025" />
<vehicle id="type1_247" type="type1" route="se" depart="160.755476758782" />
<vehicle id="type1_248" type="type1" route="nw" depart="162.0225903371357" />
<vehicle id="type1_249" type="type1" route="ns" depart="162.3110615025868" />
<vehicle id="type1_250" type="type1" route="en" depart="162.5605517103428" />
<vehicle id="type1_251" type="type1" route="ne" depart="162.59938125522996" />
<vehicle id="type1_252" type="type1" route="en" depart="163.24780294161164" />
<vehicle id="type1_253" type="type1" route="ns" depart="163.3883450683766" />
<vehicle id="type1_254" type="type1" route="ne" depart="166.86126957365656" />
<vehicle id="type1_255" type="type1" route="se" depart="167.20534531154092" />
<vehicle id="type1_256" type="type1" route="ns" depart="168.7646230686698" />
<vehicle id="type1_257" type="type1" route="wn" depart="170.31963081974087" />
<vehicle id="type1_258" type="type1" route="we" depart="170.32892253626068" />
<vehicle id="type1_259" type="type1" route="ew" depart="170.52678783603116" />
<vehicle id="type1_260" type="type1" route="ne" depart="171.63539492488303" />
<vehicle id="type1_261" type="type1" route="we" depart="171.69859102009295" />
<vehicle id="type1_262" type="type1" route="nw" depart="171.9252883532067" />
<vehicle id="type1_263" type="type1" route="wn" depart="172.0426916399073" />
<vehicle id="type1_264" type="type1" route="ew" depart="172.11381827425745" />
<vehicle id="type1_265" type="type1" route="sw" depart="172.81592096583088" />
<vehicle id="type1_266" type="type1" route="ns" depart="173.18429280225084" />
<vehicle id="type1_267" type="type1" route="sn" depart="175.29712323578912" />
<vehicle id="type1_268" type="type1" route="ne" depart="175.37246143348082" />
<vehicle id="type1_269" type="type1" route="ws" depart="178.3703059794137" />
<vehicle id="type1_270" type="type1" route="ne" depart="178.49356275781003" />
<vehicle id="type1_271" type="type1" route="sw" depart="180.07680888716138" />
<vehicle id="type1_272" type="type1" route="we" depart="180.5589144523909" />
<vehicle id="type1_273" type="type1" route="sw" depart="180.90642017402317" />
<vehicle id="type1_274" type="type1" route="ws" depart="181.05447050709333" />
<vehicle id="type1_275" type="type1" route="ns" depart="181.29806076413223" />
<vehicle id="type1_276" type="type1" route="sw" depart="182.41124210925528" />
<vehicle id="type1_277" type="type1" route="sw" depart="183.48043867341812" />
<vehicle id="type1_278" type="type1" route="es" depart="183.64754926584527" />
<vehicle id="emv_8" type="rescue" route="ns" depart="183.97799885726823" />
<vehicle id="emv_9" type="rescue" route="sn" depart="184.2163137620508" />
<vehicle id="type1_279" type="type1" route="se" depart="184.3776849355359" />
<vehicle id="emv_10" type="rescue" route="ew" depart="184.78569021295164" />
<vehicle id="type1_280" type="type1" route="wn" depart="186.42460065122097" />
<vehicle id="emv_11" type="rescue" route="ws" depart="186.56222964779246" />
<vehicle id="type1_281" type="type1" route="ns" depart="186.6717150453544" />
<vehicle id="type1_282" type="type1" route="es" depart="187.09557456007548" />
<vehicle id="type1_283" type="type1" route="we" depart="187.2596928940273" />
<vehicle id="type1_284" type="type1" route="ew" depart="188.25343370342227" />
<vehicle id="type1_285" type="type1" route="ew" depart="188.29357266633986" />
<vehicle id="type1_286" type="type1" route="nw" depart="189.03397337316727" />
<vehicle id="type1_287" type="type1" route="es" depart="189.44036713210684" />
<vehicle id="type1_288" type="type1" route="sn" depart="190.17201001894827" />
<vehicle id="type1_289" type="type1" route="nw" depart="191.10344669390648" />
<vehicle id="type1_290" type="type1" route="sw" depart="191.11324005112664" />
<vehicle id="type1_291" type="type1" route="ns" depart="191.19633372784475" />
<vehicle id="type1_292" type="type1" route="we" depart="192.16196821702985" />
<vehicle id="type1_293" type="type1" route="sw" depart="193.35137368629336" />
<vehicle id="type1_294" type="type1" route="nw" depart="193.67824369973326" />
<vehicle id="type1_295" type="type1" route="en" depart="193.7176625130915" />
<vehicle id="type1_296" type="type1" route="we" depart="194.47686623967064" />
<vehicle id="emv_12" type="rescue" route="ne" depart="195.24259152889547" />
<vehicle id="type1_297" type="type1" route="nw" depart="195.25079605212494" />
<vehicle id="type1_298" type="type1" route="ws" depart="195.53289712616137" />
<vehicle id="type1_299" type="type1" route="wn" depart="197.2091152622052" />
<vehicle id="type1_300" type="type1" route="we" depart="199.00182440783664" />
<vehicle id="type1_301" type="type1" route="we" depart="199.29716622326924" />
<vehicle id="type1_302" type="type1" route="we" depart="202.4575225456891" />
<vehicle id="type1_303" type="type1" route="nw" depart="203.35540135954218" />
<vehicle id="emv_13" type="rescue" route="ws" depart="203.4483664402379" />
<vehicle id="type1_304" type="type1" route="es" depart="203.58081092601302" />
<vehicle id="type1_305" type="type1" route="ne" depart="204.85826632511467" />
<vehicle id="type1_306" type="type1" route="ne" depart="205.43095681295205" />
<vehicle id="type1_307" type="type1" route="wn" depart="205.58358731436698" />
<vehicle id="type1_308" type="type1" route="ns" depart="206.52331043483787" />
<vehicle id="type1_309" type="type1" route="sw" depart="207.8980983526048" />
<vehicle id="type1_310" type="type1" route="sw" depart="210.543591269405" />
<vehicle id="type1_311" type="type1" route="sw" depart="211.48017520325484" />
<vehicle id="type1_312" type="type1" route="es" depart="211.52739861992984" />
<vehicle id="type1_313" type="type1" route="nw" depart="211.63520356533184" />
<vehicle id="type1_314" type="type1" route="ew" depart="212.14873161973313" />
<vehicle id="type1_315" type="type1" route="sw" depart="212.27721297796188" />
<vehicle id="type1_316" type="type1" route="sw" depart="212.36542138916585" />
<vehicle id="type1_317" type="type1" route="en" depart="214.13766111009912" />
<vehicle id="type1_318" type="type1" route="wn" depart="214.24631207735203" />
<vehicle id="type1_319" type="type1" route="es" depart="216.75752764982428" />
<vehicle id="type1_320" type="type1" route="sw" depart="216.81546216907086" />
<vehicle id="type1_321" type="type1" route="es" depart="216.83328135235337" />
<vehicle id="type1_322" type="type1" route="sn" depart="217.7277005045125" />
<vehicle id="type1_323" type="type1" route="es" depart="217.85593134686846" />
<vehicle id="type1_324" type="type1" route="sn" depart="218.4123384200817" />
<vehicle id="type1_325" type="type1" route="ns" depart="219.6939672635788" />
<vehicle id="type1_326" type="type1" route="en" depart="220.1066933145423" />
<vehicle id="type1_327" type="type1" route="sw" depart="220.12364381297962" />
<vehicle id="type1_328" type="type1" route="en" depart="220.29612032191977" />
<vehicle id="type1_329" type="type1" route="en" depart="220.5587762242503" />
<vehicle id="type1_330" type="type1" route="se" depart="220.66624188206492" />
<vehicle id="type1_331" type="type1" route="ne" depart="221.23835140276165" />
<vehicle id="type1_332" type="type1" route="sw" depart="223.44971391382035" />
<vehicle id="type1_333" type="type1" route="we" depart="223.9494671477226" />
<vehicle id="type1_334" type="type1" route="nw" depart="224.3519270815242" />
<vehicle id="type1_335" type="type1" route="sn" depart="225.33898742390957" />
<vehicle id="type1_336" type="type1" route="ne" depart="225.51414024032465" />
<vehicle id="type1_337" type="type1" route="nw" depart="226.9708394839069" />
<vehicle id="type1_338" type="type1" route="nw" depart="228.06901958039924" />
<vehicle id="type1_339" type="type1" route="se" depart="228.90898746782239" />
<vehicle id="type1_340" type="type1" route="ne" depart="229.0950648898028" />
<vehicle id="type1_341" type="type1" route="wn" depart="230.02934602642665" />
<vehicle id="type1_342" type="type1" route="we" depart="230.13343944369214" />
<vehicle id="type1_343" type="type1" route="sn" depart="230.82371243395136" />
<vehicle id="type1_344" type="type1" route="ns" depart="231.29187911214578" />
<vehicle id="type1_345" type="type1" route="ew" depart="231.73787729543156" />
<vehicle id="type1_346" type="type1" route="se" depart="231.84283351562553" />
<vehicle id="type1_347" type="type1" route="sn" depart="233.47087675927136" />
<vehicle id="type1_348" type="type1" route="ne" depart="233.48165397549556" />
<vehicle id="type1_349" type="type1" route="ne" depart="233.5013783101428" />
<vehicle id="type1_350" type="type1" route="sw" depart="233.59429679053073" />
<vehicle id="type1_351" type="type1" route="se" depart="233.74923024807734" />
<vehicle id="type1_352" type="type1" route="sn" depart="234.5712100468815" />