<routes>
            <vType id="type1" accel="0.8" decel="4.5" sigma="0.5" length="5" maxSpeed="70"/>
            <route id="ne" edges="ni eo"/>
            <route id="ns" edges="ni so"/>
            <route id="nw" edges="ni wo"/>
            <route id="en" edges="ei no"/>
            <route id="es" edges="ei so"/>
            <route id="ew" edges="ei wo"/>
            <route id="sn" edges="si no"/>
            <route id="se" edges="si eo"/>
            <route id="sw" edges="si wo"/>
            <route id="wn" edges="wi no"/>
            <route id="we" edges="wi eo"/>
            <route id="ws" edges="wi so"/>
            <route id="nn" edges="ni no"/>
            <route id="ss" edges="si so"/>
            <route id="ee" edges="ei eo"/>
            <route id="ww" edges="wi wo"/>
        <vehicle id="nn_0" type="type1" route="nn" depart="0.6566667036851046" />
<vehicle id="nn_1" type="type1" route="nn" depart="0.872620644192782" />
<vehicle id="nn_2" type="type1" route="nn" depart="2.0770590459839715" />
<vehicle id="nn_3" type="type1" route="nn" depart="3.7008865931662154" />
<vehicle id="nn_4" type="type1" route="nn" depart="4.140992479995471" />
<vehicle id="nn_5" type="type1" route="nn" depart="5.606633213361481" />
<vehicle id="nn_6" type="type1" route="nn" depart="5.745544626979955" />
<vehicle id="nn_7" type="type1" route="nn" depart="5.860664931476317" />
<vehicle id="nn_8" type="type1" route="nn" depart="8.526228177092317" />
<vehicle id="nn_9" type="type1" route="nn" depart="10.465848036344648" />
<vehicle id="nn_10" type="type1" route="nn" depart="11.003828577584983" />
<vehicle id="nn_11" type="type1" route="nn" depart="11.01295482831906" />
<vehicle id="nn_12" type="type1" route="nn" depart="11.615638807453148" />
<vehicle id="nn_13" type="type1" route="nn" depart="12.421498943707174" />
<vehicle id="nn_14" type="type1" route="nn" depart="12.672824591535958" />
<vehicle id="nn_15" type="type1" route="nn" depart="13.869981553956832" />
<vehicle id="nn_16" type="type1" route="nn" depart="15.394903857045081" />
<vehicle id="nn_17" type="type1" route="nn" depart="15.53143364572038" />
<vehicle id="nn_18" type="type1" route="nn" depart="15.965608510140276" />
<vehicle id="nn_19" type="type1" route="nn" depart="16.113068820710893" />
<vehicle id="nn_20" type="type1" route="nn" depart="16.7110283520024" />
<vehicle id="nn_21" type="type1" route="nn" depart="16.935378870019992" />
<vehicle id="nn_22" type="type1" route="nn" depart="17.549286778770135" />
<vehicle id="nn_23" type="type1" route="nn" depart="17.787025054361365" />
<vehicle id="nn_24" type="type1" route="nn" depart="18.0183875753739" />
<vehicle id="nn_25" type="type1" route="nn" depart="18.28348412080789" />
<vehicle id="nn_26" type="type1" route="nn" depart="18.406029042282025" />
<vehicle id="nn_27" type="type1" route="nn" depart="18.698474964883545" />
<vehicle id="nn_28" type="type1" route="nn" depart="19.075190828184343" />
<vehicle id="nn_29" type="type1" route="nn" depart="21.034667565721275" />
<vehicle id="nn_30" type="type1" route="nn" depart="21.89136959155341" />
<vehicle id="nn_31" type="type1" route="nn" depart="22.61905540790102" />
<vehicle id="nn_32" type="type1" route="nn" depart="24.050577190473046" />
<vehicle id="nn_33" type="type1" route="nn" depart="24.331280915010993" />
<vehicle id="nn_34" type="type1" route="nn" depart="26.64191364971358" />
<vehicle id="nn_35" type="type1" route="nn" depart="26.669305905213" />
<vehicle id="nn_36" type="type1" route="nn" depart="26.869547826907105" />
<vehicle id="nn_37" type="type1" route="nn" depart="27.725695878260648" />
<vehicle id="nn_38" type="type1" route="nn" depart="28.157083681910656" />
<vehicle id="nn_39" type="type1" route="nn" depart="28.65346150208487" />
<vehicle id="nn_40" type="type1" route="nn" depart="28.66144003576368" />
<vehicle id="nn_41" type="type1" route="nn" depart="28.665490440137706" />
<vehicle id="nn_42" type="type1" route="nn" depart="28.697579960505866" />
<vehicle id="nn_43" type="type1" route="nn" depart="30.137221706363395" />
<vehicle id="nn_44" type="type1" route="nn" depart="30.285360183409097" />
<vehicle id="nn_45" type="type1" route="nn" depart="31.610121762517757" />
<vehicle id="nn_46" type="type1" route="nn" depart="32.51927757419311" />
<vehicle id="nn_47" type="type1" route="nn" depart="32.62271301167174" />
<vehicle id="nn_48" type="type1" route="nn" depart="33.16232904614008" />
<vehicle id="nn_49" type="type1" route="nn" depart="35.35621556810825" />
<vehicle id="nn_50" type="type1" route="nn" depart="38.34268104803933" />
<vehicle id="nn_51" type="type1" route="nn" depart="38.95372350373345" />
<vehicle id="nn_52" type="type1" route="nn" depart="39.03432786703645" />
<vehicle id="nn_53" type="type1" route="nn" depart="40.21971496031796" />
<vehicle id="nn_54" type="type1" route="nn" depart="40.64286455698596" />
<vehicle id="nn_55" type="type1" route="nn" depart="41.26118882181184" />
<vehicle id="nn_56" type="type1" route="nn" depart="41.27098219075422" />
<vehicle id="nn_57" type="type1" route="nn" depart="41.36208403092526" />
<vehicle id="nn_58" type="type1" route="nn" depart="41.7351989357834" />
<vehicle id="nn_59" type="type1" route="nn" depart="42.135916992485036" />
<vehicle id="nn_60" type="type1" route="nn" depart="42.145685303664344" />
<vehicle id="nn_61" type="type1" route="nn" depart="43.18175400240125" />
<vehicle id="nn_62" type="type1" route="nn" depart="44.05148364764955" />
<vehicle id="nn_63" type="type1" route="nn" depart="44.13317621610282" />
<vehicle id="nn_64" type="type1" route="nn" depart="44.413587253649126" />
<vehicle id="nn_65" type="type1" route="nn" depart="44.66793640222913" />
<vehicle id="nn_66" type="type1" route="nn" depart="45.05969523331833" />
<vehicle id="nn_67" type="type1" route="nn" depart="46.31203834001662" />
<vehicle id="nn_68" type="type1" route="nn" depart="46.723711664555" />
<vehicle id="nn_69" type="type1" route="nn" depart="46.87421631024066" />
<vehicle id="nn_70" type="type1" route="nn" depart="47.62633737940758" />
<vehicle id="nn_71" type="type1" route="nn" depart="47.70023212414751" />
<vehicle id="nn_72" type="type1" route="nn" depart="48.13222769896037" />
<vehicle id="nn_73" type="type1" route="nn" depart="48.163342066617886" />
<vehicle id="nn_74" type="type1" route="nn" depart="48.18131593019653" />
<vehicle id="nn_75" type="type1" route="nn" depart="48.81845314337545" />
<vehicle id="nn_76" type="type1" route="nn" depart="49.873982287777196" />
<vehicle id="nn_77" type="type1" route="nn" depart="49.87719064006233" />
<vehicle id="nn_78" type="type1" route="nn" depart="50.11262868172853" />
<vehicle id="nn_79" type="type1" route="nn" depart="51.138321333956284" />
<vehicle id="nn_80" type="type1" route="nn" depart="51.60918327024857" />
<vehicle id="nn_81" type="type1" route="nn" depart="52.11577363785198" />
<vehicle id="nn_82" type="type1" route="nn" depart="54.401178475154786" />
<vehicle id="nn_83" type="type1" route="nn" depart="54.52568309988624" />
<vehicle id="nn_84" type="type1" route="nn" depart="55.29200188869998" />
<vehicle id="nn_85" type="type1" route="nn" depart="55.34613461049536" />
<vehicle id="nn_86" type="type1" route="nn" depart="55.81816281896768" />
<vehicle id="nn_87" type="type1" route="nn" depart="56.12110996695771" />
<vehicle id="nn_88" type="type1" route="nn" depart="56.44340944887092" />
<vehicle id="nn_89" type="type1" route="nn" depart="57.87022391827832" />
<vehicle id="nn_90" type="type1" route="nn" depart="59.17299093888265" />
<vehicle id="nn_91" type="type1" route="nn" depart="59.70505507799151" />
<vehicle id="nn_92" type="type1" route="nn" depart="60.55361418533227" />
<vehicle id="nn_93" type="type1" route="nn" depart="63.71166690048907" />
<vehicle id="nn_94" type="type1" route="nn" depart="64.01913545619841" />
<vehicle id="nn_95" type="type1" route="nn" depart="64.57868841685" />
<vehicle id="nn_96" type="type1" route="nn" depart="65.09577349001862" />
<vehicle id="nn_97" type="type1" route="nn" depart="65.10082559052368" />
<vehicle id="nn_98" type="type1" route="nn" depart="65.3665952453242" />
<vehicle id="nn_99" type="type1" route="nn" depart="68.58105716928101" />
<vehicle id="nn_100" type="type1" route="nn" depart="68.60930006872425" />
<vehicle id="nn_101" type="type1" route="nn" depart="68.75970475859609" />
<vehicle id="nn_102" type="type1" route="nn" depart="69.14751987633605" />
<vehicle id="nn_103" type="type1" route="nn" depart="69.30340587320745" />
<vehicle id="nn_104" type="type1" route="nn" depart="69.35550232390479" />
<vehicle id="nn_105" type="type1" route="nn" depart="69.8041858054191" />
<vehicle id="nn_106" type="type1" route="nn" depart="70.27267735215366" />
<vehicle id="nn_107" type="type1" route="nn" depart="70.54010686948457" />
<vehicle id="nn_108" type="type1" route="nn" depart="71.52717404312936" />
<vehicle id="nn_109" type="type1" route="nn" depart="71.62112458168158" />
<vehicle id="nn_110" type="type1" route="nn" depart="72.80762314183957" />
<vehicle id="nn_111" type="type1" route="nn" depart="72.8697521825677" />
<vehicle id="nn_112" type="type1" route="nn" depart="72.89049083644566" />
<vehicle id="nn_113" type="type1" route="nn" depart="73.71796677332023" />
<vehicle id="nn_114" type="type1" route="nn" depart="75.64796023361114" />
<vehicle id="nn_115" type="type1" route="nn" depart="76.25526672894968" />
<vehicle id="nn_116" type="type1" route="nn" depart="76.26426965611547" />
<vehicle id="nn_117" type="type1" route="nn" depart="77.04142803830948" />
<vehicle id="nn_118" type="type1" route="nn" depart="78.09782774886413" />
<vehicle id="nn_119" type="type1" route="nn" depart="78.43991847058223" />
<vehicle id="nn_120" type="type1" route="nn" depart="78.5668351839485" />
<vehicle id="nn_121" type="type1" route="nn" depart="78.80627719166404" />
<vehicle id="nn_122" type="type1" route="nn" depart="79.53009146043433" />
<vehicle id="nn_123" type="type1" route="nn" depart="82.14012793934018" />
<vehicle id="nn_124" type="type1" route="nn" depart="82.84743081005216" />
<vehicle id="nn_125" type="type1" route="nn" depart="83.20129335175935" />
<vehicle id="nn_126" type="type1" route="nn" depart="83.8063302840288" />
<vehicle id="nn_127" type="type1" route="nn" depart="83.99464846776435" />
<vehicle id="nn_128" type="type1" route="nn" depart="85.11022949189166" />
<vehicle id="nn_129" type="type1" route="nn" depart="85.18150947730538" />
<vehicle id="nn_130" type="type1" route="nn" depart="86.19989918012065" />
<vehicle id="nn_131" type="type1" route="nn" depart="86.711877879493" />
<vehicle id="nn_132" type="type1" route="nn" depart="88.2422289499839" />
<vehicle id="nn_133" type="type1" route="nn" depart="90.40671366054198" />
<vehicle id="nn_134" type="type1" route="nn" depart="90.68918860117539" />
<vehicle id="nn_135" type="type1" route="nn" depart="91.08488794912546" />
<vehicle id="nn_136" type="type1" route="nn" depart="91.2747631485846" />
<vehicle id="nn_137" type="type1" route="nn" depart="91.28061527846423" />
<vehicle id="nn_138" type="type1" route="nn" depart="91.6066578430559" />
<vehicle id="nn_139" type="type1" route="nn" depart="92.15527057488102" />
<vehicle id="nn_140" type="type1" route="nn" depart="92.70684118607333" />
<vehicle id="nn_141" type="type1" route="nn" depart="93.72753078763168" />
<vehicle id="nn_142" type="type1" route="nn" depart="96.35921113849037" />
<vehicle id="nn_143" type="type1" route="nn" depart="97.00792034976682" />
<vehicle id="nn_144" type="type1" route="nn" depart="97.7414450072004" />
<vehicle id="nn_145" type="type1" route="nn" depart="98.48575526789" />
<vehicle id="nn_146" type="type1" route="nn" depart="98.55676044821517" />
<vehicle id="nn_147" type="type1" route="nn" depart="98.74909575015394" />
<vehicle id="nn_148" type="type1" route="nn" depart="98.86467972788677" />
<vehicle id="nn_149" type="type1" route="nn" depart="100.52655244303288" />
<vehicle id="nn_150" type="type1" route="nn" depart="100.67162459107267" />
<vehicle id="nn_151" type="type1" route="nn" depart="101.00356986030188" />
<vehicle id="nn_152" type="type1" route="nn" depart="101.23244972808197" />
<vehicle id="nn_153" type="type1" route="nn" depart="102.91049063731134" />
<vehicle id="nn_154" type="type1" route="nn" depart="103.22973240356094" />
<vehicle id="nn_155" type="type1" route="nn" depart="104.70935826545286" />
<vehicle id="nn_156" type="type1" route="nn" depart="104.77974171090816" />
<vehicle id="nn_157" type="type1" route="nn" depart="105.52521350893443" />
<vehicle id="nn_158" type="type1" route="nn" depart="106.52756056584269" />
<vehicle id="nn_159" type="type1" route="nn" depart="109.14263934205427" />
<vehicle id="nn_160" type="type1" route="nn" depart="110.37705982187389" />
<vehicle id="nn_161" type="type1" route="nn" depart="110.67280102336407" />
<vehicle id="nn_162" type="type1" route="nn" depart="113.02257978961265" />
<vehicle id="nn_163" type="type1" route="nn" depart="113.21760771811616" />
<vehicle id="nn_164" type="type1" route="nn" depart="114.04201997492679" />
<vehicle id="nn_165" type="type1" route="nn" depart="115.89682197639672" />
<vehicle id="nn_166" type="type1" route="nn" depart="116.48483304382465" />
<vehicle id="nn_167" type="type1" route="nn" depart="116.83011473475234" />
<vehicle id="nn_168" type="type1" route="nn" depart="116.96157871332873" />
<vehicle id="nn_169" type="type1" route="nn" depart="117.28393305989758" />
<vehicle id="nn_170" type="type1" route="nn" depart="117.4801936218793" />
<vehicle id="nn_171" type="type1" route="nn" depart="118.75794337818454" />
<vehicle id="nn_172" type="type1" route="nn" depart="120.1505391204633" />
<vehicle id="nn_173" type="type1" route="nn" depart="120.46628634139527" />
<vehicle id="nn_174" type="type1" route="nn" depart="122.76931109017066" />
<vehicle id="nn_175" type="type1" route="nn" depart="123.21649134090686" />
<vehicle id="nn_176" type="type1" route="nn" depart="123.47727073805507" />
<vehicle id="nn_177" type="type1" route="nn" depart="123.71713415972566" />
<vehicle id="nn_178" type="type1" route="nn" depart="124.352150733906" />
<vehicle id="nn_179" type="type1" route="nn" depart="126.74730430913355" />
<vehicle id="nn_180" type="type1" route="nn" depart="126.95038848863564" />
<vehicle id="nn_181" type="type1" route="nn" depart="129.644556957582" />
<vehicle id="nn_182" type="type1" route="nn" depart="129.99115745930118" />
<vehicle id="nn_183" type="type1" route="nn" depart="130.04009914533728" />
<vehicle id="nn_184" type="type1" route="nn" depart="134.26864330832439" />
<vehicle id="nn_185" type="type1" route="nn" depart="134.3676707129962" />
<vehicle id="nn_186" type="type1" route="nn" depart="134.46538260447318" />
<vehicle id="nn_187" type="type1" route="nn" depart="134.95442111881735" />
<vehicle id="nn_188" type="type1" route="nn" depart="135.4480115155971" />
<vehicle id="nn_189" type="type1" route="nn" depart="135.7831610634465" />
<vehicle id="nn_190" type="type1" route="nn" depart="136.4496733433997" />
<vehicle id="nn_191" type="type1" route="nn" depart="136.80400481343628" />
<vehicle id="nn_192" type="type1" route="nn" depart="138.26162188045768" />
<vehicle id="nn_193" type="type1" route="nn" depart="138.28205741951126" />
<vehicle id="nn_194" type="type1" route="nn" depart="138.4967047538795" />
<vehicle id="nn_195" type="type1" route="nn" depart="138.57007007482503" />
<vehicle id="nn_196" type="type1" route="nn" depart="139.83220280169294" />
<vehicle id="nn_197" type="type1" route="nn" depart="139.87144806152799" />
<vehicle id="nn_198" type="type1" route="nn" depart="142.1279288100811" />
<vehicle id="nn_199" type="type1" route="nn" depart="142.29987067950057" />
<vehicle id="nn_200" type="type1" route="nn" depart="144.44720885115225" />
<vehicle id="nn_201" type="type1" route="nn" depart="146.6357581981593" />
<vehicle id="nn_202" type="type1" route="nn" depart="146.67901996701463" />
<vehicle id="nn_203" type="type1" route="nn" depart="147.54327807053707" />
<vehicle id="nn_204" type="type1" route="nn" depart="147.8090144928252" />
<vehicle id="nn_205" type="type1" route="nn" depart="148.1852621468754" />
<vehicle id="nn_206" type="type1" route="nn" depart="150.21169640314102" />
<vehicle id="nn_207" type="type1" route="nn" depart="150.61572675233165" />
<vehicle id="nn_208" type="type1" route="nn" depart="151.53859256103686" />
<vehicle id="nn_209" type="type1" route="nn" depart="153.97914990639018" />
<vehicle id="nn_210" type="type1" route="nn" depart="154.21634885074818" />
<vehicle id="nn_211" type="type1" route="nn" depart="155.3575861257456" />
<vehicle id="nn_212" type="type1" route="nn" depart="158.03078261909897" />
<vehicle id="nn_213" type="type1" route="nn" depart="159.63384600701073" />
<vehicle id="nn_214" type="type1" route="nn" depart="160.4273713750811" />
<vehicle id="nn_215" type="type1" route="nn" depart="160.45187892707574" />
<vehicle id="nn_216" type="type1" route="nn" depart="161.06091690377872" />
<vehicle id="nn_217" type="type1" route="nn" depart="162.69517028151347" />
<vehicle id="nn_218" type="type1" route="nn" depart="162.8308524839043" />
<vehicle id="nn_219" type="type1" route="nn" depart="166.07504601186955" />
<vehicle id="nn_220" type="type1" route="nn" depart="167.2202525843375" />
<vehicle id="nn_221" type="type1" route="nn" depart="168.00935709848903" />
<vehicle id="nn_222" type="type1" route="nn" depart="168.11057155005227" />
<vehicle id="nn_223" type="type1" route="nn" depart="168.5528672188571" />
<vehicle id="nn_224" type="type1" route="nn" depart="170.05635977678" />
<vehicle id="nn_225" type="type1" route="nn" depart="170.10566508844565" />
<vehicle id="nn_226" type="type1" route="nn" depart="170.92296337541708" />
<vehicle id="nn_227" type="type1" route="nn" depart="171.4228898772602" />
<vehicle id="nn_228" type="type1" route="nn" depart="171.55517552075983" />
<vehicle id="nn_229" type="type1" route="nn" depart="172.32993659118998" />
<vehicle id="nn_230" type="type1" route="nn" depart="172.47385990701292" />
<vehicle id="nn_231" type="type1" route="nn" depart="172.8427193730575" />
<vehicle id="nn_232" type="type1" route="nn" depart="173.36736684113396" />
<vehicle id="nn_233" type="type1" route="nn" depart="173.83414668025938" />
<vehicle id="nn_234" type="type1" route="nn" depart="174.7514752593414" />
<vehicle id="nn_235" type="type1" route="nn" depart="175.45833237642512" />
<vehicle id="nn_236" type="type1" route="nn" depart="175.7507567332695" />
<vehicle id="nn_237" type="type1" route="nn" depart="176.09656125607276" />
<vehicle id="nn_238" type="type1" route="nn" depart="177.1691294063906" />
<vehicle id="nn_239" type="type1" route="nn" depart="178.36542817707064" />
<vehicle id="nn_240" type="type1" route="nn" depart="178.49570684433652" />
<vehicle id="nn_241" type="type1" route="nn" depart="178.90877865316324" />
<vehicle id="nn_242" type="type1" route="nn" depart="178.9213589418582" />
<vehicle id="nn_243" type="type1" route="nn" depart="179.13491982103366" />
<vehicle id="nn_244" type="type1" route="nn" depart="179.27679790851008" />
<vehicle id="nn_245" type="type1" route="nn" depart="181.73663912276982" />
<vehicle id="nn_246" type="type1" route="nn" depart="182.34657007363595" />
<vehicle id="nn_247" type="type1" route="nn" depart="182.51800792990235" />
<vehicle id="nn_248" type="type1" route="nn" depart="182.6003535793578" />
<vehicle id="nn_249" type="type1" route="nn" depart="184.2513944177237" />
<vehicle id="nn_250" type="type1" route="nn" depart="184.5396181809401" />
<vehicle id="nn_251" type="type1" route="nn" depart="185.2680217805727" />
<vehicle id="nn_252" type="type1" route="nn" depart="186.00576443813813" />
<vehicle id="nn_253" type="type1" route="nn" depart="187.712378472368" />
<vehicle id="nn_254" type="type1" route="nn" depart="188.11751954922576" />
<vehicle id="nn_255" type="type1" route="nn" depart="189.31691470380906" />
<vehicle id="nn_256" type="type1" route="nn" depart="189.60102453959672" />
<vehicle id="nn_257" type="type1" route="nn" depart="190.6626910689576" />
<vehicle id="nn_258" type="type1" route="nn" depart="191.45488858886011" />
<vehicle id="nn_259" type="type1" route="nn" depart="191.96743879103232" />
<vehicle id="nn_260" type="type1" route="nn" depart="192.05392777418754" />
<vehicle id="nn_261" type="type1" route="nn" depart="194.88532513858314" />
<vehicle id="nn_262" type="type1" route="nn" depart="196.3776594062251" />
<vehicle id="nn_263" type="type1" route="nn" depart="196.38958083740974" />
<vehicle id="nn_264" type="type1" route="nn" depart="196.6837813349429" />
<vehicle id="nn_265" type="type1" route="nn" depart="196.82565107383803" />
<vehicle id="nn_266" type="type1" route="nn" depart="199.85143330685167" />
<vehicle id="nn_267" type="type1" route="nn" depart="199.8980854719278" />
<vehicle id="nn_268" type="type1" route="nn" depart="200.29803830027933" />
<vehicle id="nn_269" type="type1" route="nn" depart="200.76587614437193" />
<vehicle id="nn_270" type="type1" route="nn" depart="200.82029655171735" />
<vehicle id="nn_271" type="type1" route="nn" depart="202.45247311365054" />
<vehicle id="nn_272" type="type1" route="nn" depart="202.55964439921723" />
<vehicle id="nn_273" type="type1" route="nn" depart="202.99256269038486" />
<vehicle id="nn_274" type="type1" route="nn" depart="203.35275839159686" />
<vehicle id="nn_275" type="type1" route="nn" depart="203.73087957124508" />
<vehicle id="nn_276" type="type1" route="nn" depart="203.75308089063728" />
<vehicle id="nn_277" type="type1" route="nn" depart="203.79762048513308" />
<vehicle id="nn_278" type="type1" route="nn" depart="203.91686762641118" />
<vehicle id="nn_279" type="type1" route="nn" depart="204.9646214207144" />
<vehicle id="nn_280" type="type1" route="nn" depart="206.61249365983986" />
<vehicle id="nn_281" type="type1" route="nn" depart="208.39423272230835" />
<vehicle id="nn_282" type="type1" route="nn" depart="208.94045324566272" />
<vehicle id="nn_283" type="type1" route="nn" depart="209.85400640496903" />
<vehicle id="nn_284" type="type1" route="nn" depart="210.4737578971524" />
<vehicle id="nn_285" type="type1" route="nn" depart="210.94353808831193" />
<vehicle id="nn_286" type="type1" route="nn" depart="211.18311943806478" />
<vehicle id="nn_287" type="type1" route="nn" depart="212.78948469843667" />
<vehicle id="nn_288" type="type1" route="nn" depart="213.651291439705" />
<vehicle id="nn_289" type="type1" route="nn" depart="213.6673784984952" />
<vehicle id="nn_290" type="type1" route="nn" depart="213.79496132134733" />
<vehicle id="nn_291" type="type1" route="nn" depart="214.05389052943983" />
<vehicle id="nn_292" type="type1" route="nn" depart="214.49655535977234" />
<vehicle id="nn_293" type="type1" route="nn" depart="214.5378994401096" />
<vehicle id="nn_294" type="type1" route="nn" depart="214.83446375732672" />
<vehicle id="nn_295" type="type1" route="nn" depart="215.1978573523254" />
<vehicle id="nn_296" type="type1" route="nn" depart="215.8086312663704" />
<vehicle id="nn_297" type="type1" route="nn" depart="215.84605131291272" />
<vehicle id="nn_298" type="type1" route="nn" depart="217.3829444670209" />
<vehicle id="nn_299" type="type1" route="nn" depart="218.55811524566104" />
<vehicle id="nn_300" type="type1" route="nn" depart="219.8939779179854" />
<vehicle id="nn_301" type="type1" route="nn" depart="220.82688488705665" />
<vehicle id="nn_302" type="type1" route="nn" depart="221.6420054428251" />
<vehicle id="nn_303" type="type1" route="nn" depart="222.65636451665748" />
<vehicle id="nn_304" type="type1" route="nn" depart="223.19950589053218" />
<vehicle id="nn_305" type="type1" route="nn" depart="223.3457488943885" />
<vehicle id="nn_306" type="type1" route="nn" depart="224.61535325613445" />
<vehicle id="nn_307" type="type1" route="nn" depart="225.41277753361865" />
<vehicle id="nn_308" type="type1" route="nn" depart="226.46736267468188" />
<vehicle id="nn_309" type="type1" route="nn" depart="226.47970577542952" />
<vehicle id="nn_310" type="type1" route="nn" depart="227.43558229947183" />
<vehicle id="nn_311" type="type1" route="nn" depart="227.83751954510558" />
<vehicle id="nn_312" type="type1" route="nn" depart="228.077568509232" />
<vehicle id="nn_313" type="type1" route="nn" depart="228.18971274236173" />
<vehicle id="nn_314" type="type1" route="nn" depart="228.57663653829653" />
<vehicle id="nn_315" type="type1" route="nn" depart="228.85461526303308" />
<vehicle id="nn_316" type="type1" route="nn" depart="229.9748124191271" />
<vehicle id="nn_317" type="type1" route="nn" depart="231.5790289644433" />
<vehicle id="nn_318" type="type1" route="nn" depart="231.64017997840892" />
<vehicle id="nn_319" type="type1" route="nn" depart="232.08774403837884" />
<vehicle id="nn_320" type="type1" route="nn" depart="232.4830892937509" />
<vehicle id="nn_321" type="type1" route="nn" depart="232.7779569154111" />
<vehicle id="nn_322" type="type1" route="nn" depart="233.38146879624182" />
<vehicle id="nn_323" type="type1" route="nn" depart="233.4943990791462" />
<vehicle id="nn_324" type="type1" route="nn" depart="234.81320841309673" />
<vehicle id="nn_325" type="type1" route="nn" depart="235.6317893623895" />
<vehicle id="nn_326" type="type1" route="nn" depart="238.5247953564305" />
<vehicle id="nn_327" type="type1" route="nn" depart="239.11930807986204" />
<vehicle id="nn_328" type="type1" route="nn" depart="239.71806012844087" />
<vehicle id="nn_329" type="type1" route="nn" depart="239.95134169689018" />
<vehicle id="nn_330" type="type1" route="nn" depart="240.69458067657646" />
<vehicle id="nn_331" type="type1" route="nn" depart="240.86997789765454" />
<vehicle id="nn_332" type="type1" route="nn" depart="240.97588423127465" />
<vehicle id="nn_333" type="type1" route="nn" depart="241.19087232193544" />
<vehicle id="nn_334" type="type1" route="nn" depart="241.34610763547914" />
<vehicle id="nn_335" type="type1" route="nn" depart="241.57521460101316" />
<vehicle id="nn_336" type="type1" route="nn" depart="241.91496120805172" />
<vehicle id="nn_337" type="type1" route="nn" depart="242.69807275808975" />
<vehicle id="nn_338" type="type1" route="nn" depart="242.9023612935503" />
<vehicle id="nn_339" type="type1" route="nn" depart="244.08711047455566" />
<vehicle id="nn_340" type="type1" route="nn" depart="246.28376576030632" />
<vehicle id="nn_341" type="type1" route="nn" depart="246.448644870541" />
<vehicle id="nn_342" type="type1" route="nn" depart="246.91656704204544" />
<vehicle id="nn_343" type="type1" route="nn" depart="247.9370386069226" />
<vehicle id="nn_344" type="type1" route="nn" depart="248.6789643212145" />
<vehicle id="nn_345" type="type1" route="nn" depart="249.14640622689362" />
<vehicle id="nn_346" type="type1" route="nn" depart="250.25841304915437" />
<vehicle id="nn_347" type="type1" route="nn" depart="250.7654180449768" />
<vehicle id="nn_348" type="type1" route="nn" depart="250.7694211418089" />
<vehicle id="nn_349" type="type1" route="nn" depart="251.28487787263686" />
<vehicle id="nn_350" type="type1" route="nn" depart="251.55880995294257" />
<vehicle id="nn_351" type="type1" route="nn" depart="251.92765969437102" />
<vehicle id="nn_352" type="type1" route="nn" depart="251.96759818390652" />
<vehicle id="nn_353" type="type1" route="nn" depart="252.77632810659762" />
<vehicle id="nn_354" type="type1" route="nn" depart="253.82827606300228" />
<vehicle id="nn_355" type="type1" route="nn" depart="254.199222068659" />
<vehicle id="nn_356" type="type1" route="nn" depart="254.23104977251154" />
<vehicle id="nn_357" type="type1" route="nn" depart="254.62658990844028" />
<vehicle id="nn_358" type="type1" route="nn" depart="254.8620048158538" />
<vehicle id="nn_359" type="type1" route="nn" depart="255.12474364838116" />
<vehicle id="nn_360" type="type1" route="nn" depart="255.50748783691748" />
<vehicle id="nn_361" type="type1" route="nn" depart="255.96056326114643" />
<vehicle id="nn_362" type="type1" route="nn" depart="256.1643621481463" />
<vehicle id="nn_363" type="type1" route="nn" depart="257.3422393951786" />
<vehicle id="nn_364" type="type1" route="nn" depart="257.82469851161756" />
<vehicle id="nn_365" type="type1" route="nn" depart="258.16559306697286" />
<vehicle id="nn_366" type="type1" route="nn" depart="260.34524468375776" />
<vehicle id="nn_367" type="type1" route="nn" depart="260.80154056095495" />
<vehicle id="nn_368" type="type1" route="nn" depart="261.0807811629266" />
<vehicle id="nn_369" type="type1" route="nn" depart="261.8050605255315" />
<vehicle id="nn_370" type="type1" route="nn" depart="261.8918019366765" />
<vehicle id="nn_371" type="type1" route="nn" depart="262.28200868504996" />
<vehicle id="nn_372" type="type1" route="nn" depart="262.6363648556394" />
<vehicle id="nn_373" type="type1" route="nn" depart="263.407295035702" />
<vehicle id="nn_374" type="type1" route="nn" depart="263.9655779858282" />
<vehicle id="nn_375" type="type1" route="nn" depart="264.01708440891736" />
<vehicle id="nn_376" type="type1" route="nn" depart="264.7085898606204" />
<vehicle id="nn_377" type="type1" route="nn" depart="264.81189542169176" />
<vehicle id="nn_378" type="type1" route="nn" depart="264.8351737170993" />
<vehicle id="nn_379" type="type1" route="nn" depart="265.3263000371621" />
<vehicle id="nn_380" type="type1" route="nn" depart="266.63839561649553" />
<vehicle id="nn_381" type="type1" route="nn" depart="266.98661475957704" />
<vehicle id="nn_382" type="type1" route="nn" depart="267.1859110618261" />
<vehicle id="nn_383" type="type1" route="nn" depart="267.39839599415285" />
<vehicle id="nn_384" type="type1" route="nn" depart="268.5429058467866" />
<vehicle id="nn_385" type="type1" route="nn" depart="268.8799380989902" />
<vehicle id="nn_386" type="type1" route="nn" depart="269.55188619508476" />
<vehicle id="nn_387" type="type1" route="nn" depart="269.6320989679954" />