<routes>
            <vType id="type1" accel="0.8" decel="4.5" sigma="0.5" length="5" maxSpeed="70"/>
            <vType id="rescue" vClass="emergency" speedFactor="1.5" guiShape="emergency">
                <param key="has.bluelight.device" value="true"/>
            </vType>
            <route id="ne" edges="ni eo"/>
            <route id="ns" edges="ni so"/>
            <route id="nw" edges="ni wo"/>
            <route id="en" edges="ei no"/>
            <route id="es" edges="ei so"/>
            <route id="ew" edges="ei wo"/>
            <route id="sn" edges="si no"/>
            <route id="se" edges="si eo"/>
            <route id="sw" edges="si wo"/>
            <route id="wn" edges="wi no"/>
            <route id="we" edges="wi eo"/>
            <route id="ws" edges="wi so"/>
        <vehicle id="type1_1" type="type1" route="wn" depart="0.9338183320806657" />
<vehicle id="type1_2" type="type1" route="sn" depart="2.3518545624092866" />
<vehicle id="type1_3" type="type1" route="en" depart="2.5998746486050597" />
<vehicle id="type1_4" type="type1" route="sn" depart="4.51488549741447" />
<vehicle id="type1_5" type="type1" route="we" depart="4.607408729658125" />
<vehicle id="type1_6" type="type1" route="ne" depart="6.732225755350478" />
<vehicle id="type1_7" type="type1" route="ew" depart="7.477213385370256" />
<vehicle id="type1_8" type="type1" route="ws" depart="8.893921189586045" />
<vehicle id="type1_9" type="type1" route="ne" depart="13.80698514656578" />
<vehicle id="type1_10" type="type1" route="nw" depart="14.401679580298962" />
<vehicle id="type1_11" type="type1" route="se" depart="14.566317278576127" />
<vehicle id="type1_12" type="type1" route="we" depart="15.595687110178194" />
<vehicle id="type1_13" type="type1" route="nw" depart="15.929892136656335" />
<vehicle id="type1_14" type="type1" route="we" depart="16.929362397889545" />
<vehicle id="type1_15" type="type1" route="sn" depart="19.275986573149503" />
<vehicle id="type1_16" type="type1" route="en" depart="22.29568297008599" />
<vehicle id="type1_17" type="type1" route="wn" depart="24.6374604160929" />
<vehicle id="type1_18" type="type1" route="wn" depart="25.616719215633463" />
<vehicle id="type1_19" type="type1" route="nw" depart="25.659275501275033" />
<vehicle id="type1_20" type="type1" route="es" depart="28.131830296170516" />
<vehicle id="type1_21" type="type1" route="en" depart="28.261744490800943" />
<vehicle id="type1_22" type="type1" route="sw" depart="29.992537555766408" />
<vehicle id="type1_23" type="type1" route="sn" depart="30.46239031797915" />
<vehicle id="type1_24" type="type1" route="wn" depart="30.71386393359207" />
<vehicle id="type1_25" type="type1" route="sw" depart="32.420504589010555" />
<vehicle id="type1_26" type="type1" route="en" depart="34.3650639862443" />
<vehicle id="type1_27" type="type1" route="en" depart="36.06850240877381" />
<vehicle id="type1_28" type="type1" route="sn" depart="37.408409435184275" />
<vehicle id="type1_29" type="type1" route="wn" depart="39.81097465354539" />
<vehicle id="type1_30" type="type1" route="sw" depart="41.09968074395861" />
<vehicle id="type1_31" type="type1" route="ns" depart="45.9172834052497" />
<vehicle id="type1_32" type="type1" route="wn" depart="49.07876800627499" />
<vehicle id="type1_33" type="type1" route="wn" depart="49.11164726106526" />
<vehicle id="type1_34" type="type1" route="ns" depart="49.44027078878959" />
<vehicle id="type1_35" type="type1" route="en" depart="50.69479383715426" />
<vehicle id="type1_36" type="type1" route="se" depart="51.18473730138204" />
<vehicle id="type1_37" type="type1" route="sn" depart="53.233303543172916" />
<vehicle id="type1_38" type="type1" route="es" depart="53.660756799598055" />
<vehicle id="type1_39" type="type1" route="sw" depart="53.69678543009789" />
<vehicle id="type1_40" type="type1" route="ns" depart="56.566006791932836" />
<vehicle id="type1_41" type="type1" route="es" depart="57.57728896853308" />
<vehicle id="type1_42" type="type1" route="we" depart="57.84838707385755" />
<vehicle id="type1_43" type="type1" route="nw" depart="60.8471215258424" />
<vehicle id="type1_44" type="type1" route="sn" depart="60.90870570515597" />
<vehicle id="type1_45" type="type1" route="ew" depart="61.78549851647653" />
<vehicle id="type1_46" type="type1" route="ne" depart="61.987395513220804" />
<vehicle id="type1_47" type="type1" route="ne" depart="62.47161675743361" />
<vehicle id="type1_48" type="type1" route="ew" depart="63.1045805210933" />
<vehicle id="type1_49" type="type1" route="es" depart="63.67959271933687" />
<vehicle id="type1_50" type="type1" route="wn" depart="67.82506384143558" />
<vehicle id="type1_51" type="type1" route="sn" depart="68.0330194708671" />
<vehicle id="type1_52" type="type1" route="en" depart="68.18704351838227" />
<vehicle id="type1_53" type="type1" route="es" depart="69.49355178503716" />
<vehicle id="type1_54" type="type1" route="wn" depart="69.52084109116387" />
<vehicle id="type1_55" type="type1" route="nw" depart="71.01533667275682" />
<vehicle id="type1_56" type="type1" route="sn" depart="71.7681142401708" />
<vehicle id="type1_57" type="type1" route="nw" depart="72.30529648309943" />
<vehicle id="type1_58" type="type1" route="wn" depart="72.33761761362348" />
<vehicle id="type1_59" type="type1" route="se" depart="75.70793319242851" />
<vehicle id="type1_60" type="type1" route="nw" depart="78.20685142395094" />
<vehicle id="type1_61" type="type1" route="ns" depart="79.3945927893149" />
<vehicle id="type1_62" type="type1" route="se" depart="80.17184810159355" />
<vehicle id="type1_63" type="type1" route="ne" depart="80.32847772171098" />
<vehicle id="type1_64" type="type1" route="ns" depart="80.89077845812639" />
<vehicle id="type1_65" type="type1" route="ns" depart="81.69565906072128" />
<vehicle id="type1_66" type="type1" route="wn" depart="81.8475011739706" />
<vehicle id="type1_67" type="type1" route="sn" depart="83.97324409046301" />
<vehicle id="type1_68" type="type1" route="se" depart="85.95329085000792" />
<vehicle id="type1_69" type="type1" route="sn" depart="90.39299061109406" />
<vehicle id="type1_70" type="type1" route="es" depart="90.45977167891415" />
<vehicle id="type1_71" type="type1" route="ws" depart="90.91136876785059" />
<vehicle id="type1_72" type="type1" route="ew" depart="92.57417752589103" />
<vehicle id="type1_73" type="type1" route="sw" depart="92.67897308475357" />
<vehicle id="type1_74" type="type1" route="en" depart="92.86391518438731" />
<vehicle id="type1_75" type="type1" route="ne" depart="93.56600842287962" />
<vehicle id="type1_76" type="type1" route="we" depart="93.63975741843885" />
<vehicle id="type1_77" type="type1" route="wn" depart="95.3084613867393" />
<vehicle id="type1_78" type="type1" route="sn" depart="99.6030119980963" />
<vehicle id="type1_79" type="type1" route="ns" depart="100.63683298247263" />
<vehicle id="type1_80" type="type1" route="se" depart="102.3961188240084" />
<vehicle id="type1_81" type="type1" route="en" depart="102.57603260619418" />
<vehicle id="type1_82" type="type1" route="ns" depart="103.60795806284348" />
<vehicle id="type1_83" type="type1" route="sw" depart="105.02124539334983" />
<vehicle id="type1_84" type="type1" route="ns" depart="106.70824067595912" />
<vehicle id="type1_85" type="type1" route="es" depart="109.61441510801498" />
<vehicle id="type1_86" type="type1" route="sn" depart="110.576006702342" />
<vehicle id="type1_87" type="type1" route="wn" depart="111.47622334190416" />
<vehicle id="type1_88" type="type1" route="en" depart="114.91458142543301" />
<vehicle id="type1_89" type="type1" route="nw" depart="115.18218158731219" />
<vehicle id="type1_90" type="type1" route="en" depart="118.35540431324738" />
<vehicle id="type1_91" type="type1" route="ns" depart="118.6351300471628" />
<vehicle id="type1_92" type="type1" route="es" depart="121.51924601273289" />
<vehicle id="type1_93" type="type1" route="sn" depart="122.80918968208462" />
<vehicle id="type1_94" type="type1" route="ws" depart="122.8336387139959" />
<vehicle id="type1_95" type="type1" route="ws" depart="126.73141742038554" />
<vehicle id="type1_96" type="type1" route="we" depart="128.90403666347578" />
<vehicle id="type1_97" type="type1" route="en" depart="129.65632889989902" />
<vehicle id="type1_98" type="type1" route="ew" depart="135.45317712161352" />
<vehicle id="type1_99" type="type1" route="we" depart="137.8839568658896" />
<vehicle id="type1_100" type="type1" route="se" depart="139.0809222832541" />
<vehicle id="type1_101" type="type1" route="se" depart="139.97298896302564" />
<vehicle id="type1_102" type="type1" route="we" depart="140.27098683598214" />
<vehicle id="type1_103" type="type1" route="se" depart="140.37744448813004" />
<vehicle id="type1_104" type="type1" route="ne" depart="142.12110695756164" />
<vehicle id="type1_105" type="type1" route="ew" depart="143.2116259933121" />
<vehicle id="type1_106" type="type1" route="en" depart="144.4866098769724" />
<vehicle id="type1_107" type="type1" route="es" depart="145.20995166439585" />
<vehicle id="type1_108" type="type1" route="es" depart="147.1139020469968" />
<vehicle id="type1_109" type="type1" route="sw" depart="148.69480834232212" />
<vehicle id="type1_110" type="type1" route="se" depart="148.73419127327745" />
<vehicle id="type1_111" type="type1" route="ew" depart="150.09024028875007" />
<vehicle id="type1_112" type="type1" route="es" depart="151.61319330309084" />
<vehicle id="type1_113" type="type1" route="sn" depart="152.05176266118687" />
<vehicle id="type1_114" type="type1" route="wn" depart="153.88100005540696" />
<vehicle id="type1_115" type="type1" route="ws" depart="156.0383844573127" />
<vehicle id="type1_116" type="type1" route="ew" depart="164.18578226476234" />
<vehicle id="type1_117" type="type1" route="se" depart="165.1673116667417" />
<vehicle id="type1_118" type="type1" route="nw" depart="165.42707316181102" />
<vehicle id="type1_119" type="type1" route="se" depart="166.1835354365807" />
<vehicle id="type1_120" type="type1" route="ns" depart="168.24891428765343" />
<vehicle id="type1_121" type="type1" route="ws" depart="169.6494391703802" />
<vehicle id="type1_122" type="type1" route="ne" depart="172.80468394473507" />
<vehicle id="type1_123" type="type1" route="we" depart="173.3375166601" />
<vehicle id="type1_124" type="type1" route="ws" depart="174.0689817173319" />
<vehicle id="type1_125" type="type1" route="ew" depart="174.47034727489154" />
<vehicle id="type1_126" type="type1" route="nw" depart="175.63490155582608" />
<vehicle id="type1_127" type="type1" route="es" depart="176.86450727672752" />
<vehicle id="type1_128" type="type1" route="ne" depart="177.34862272583095" />
<vehicle id="type1_129" type="type1" route="ws" depart="177.48484702430818" />
<vehicle id="type1_130" type="type1" route="se" depart="178.03805123413673" />
<vehicle id="type1_131" type="type1" route="wn" depart="178.07683686318634" />
<vehicle id="type1_132" type="type1" route="wn" depart="178.11619993656544" />
<vehicle id="type1_133" type="type1" route="en" depart="178.60610462425623" />
<vehicle id="type1_134" type="type1" route="wn" depart="179.0328211727678" />
<vehicle id="type1_135" type="type1" route="wn" depart="179.07322190646943" />
<vehicle id="type1_136" type="type1" route="ew" depart="179.40123759142622" />
<vehicle id="type1_137" type="type1" route="we" depart="179.61763051382326" />
<vehicle id="type1_138" type="type1" route="ne" depart="179.72205139694054" />
<vehicle id="type1_139" type="type1" route="ew" depart="182.28482557752352" />
<vehicle id="type1_140" type="type1" route="se" depart="185.51546997608537" />
<vehicle id="type1_141" type="type1" route="we" depart="185.52548899092307" />
<vehicle id="type1_142" type="type1" route="nw" depart="188.16415361497553" />
<vehicle id="type1_143" type="type1" route="ew" depart="189.79979040398348" />
<vehicle id="type1_144" type="type1" route="ne" depart="190.22360524339805" />
<vehicle id="type1_145" type="type1" route="sw" depart="192.45329509432767" />
<vehicle id="type1_146" type="type1" route="ew" depart="194.7257819924434" />
<vehicle id="type1_147" type="type1" route="sn" depart="197.22645032288787" />
<vehicle id="type1_148" type="type1" route="ew" depart="197.99454559006975" />
<vehicle id="type1_149" type="type1" route="sn" depart="199.43627215151852" />
<vehicle id="type1_150" type="type1" route="wn" depart="199.76985310686587" />
<vehicle id="type1_151" type="type1" route="sn" depart="200.67228071439703" />
<vehicle id="type1_152" type="type1" route="nw" depart="202.00092828865462" />
<vehicle id="type1_153" type="type1" route="se" depart="207.7354854092908" />
<vehicle id="type1_154" type="type1" route="ew" depart="207.74455420086767" />
<vehicle id="type1_155" type="type1" route="sw" depart="208.07929128065666" />
<vehicle id="type1_156" type="type1" route="en" depart="210.5714769574933" />
<vehicle id="type1_157" type="type1" route="we" depart="210.66665474472896" />
<vehicle id="type1_158" type="type1" route="nw" depart="211.5984386403697" />
<vehicle id="type1_159" type="type1" route="en" depart="212.00724536509787" />
<vehicle id="type1_160" type="type1" route="ew" depart="215.86833606115133" />
<vehicle id="type1_161" type="type1" route="ne" depart="218.9830272123934" />
<vehicle id="type1_162" type="type1" route="nw" depart="219.59112071908982" />
<vehicle id="type1_163" type="type1" route="en" depart="221.88352485794158" />
<vehicle id="type1_164" type="type1" route="nw" depart="221.90757080275785" />
<vehicle id="type1_165" type="type1" route="wn" depart="224.04040720337733" />
<vehicle id="type1_166" type="type1" route="nw" depart="224.26886208740984" />
<vehicle id="type1_167" type="type1" route="ne" depart="227.2115979442654" />
<vehicle id="type1_168" type="type1" route="se" depart="228.62279423993917" />
<vehicle id="type1_169" type="type1" route="en" depart="228.95707821415456" />
<vehicle id="type1_170" type="type1" route="nw" depart="229.04511610334032" />
<vehicle id="type1_171" type="type1" route="sn" depart="230.4287350286353" />
<vehicle id="type1_172" type="type1" route="ew" depart="231.43447915448093" />
<vehicle id="type1_173" type="type1" route="nw" depart="231.72864163067814" />
<vehicle id="type1_174" type="type1" route="nw" depart="231.81297163714294" />
<vehicle id="type1_175" type="type1" route="se" depart="233.47416382611468" />
<vehicle id="type1_176" type="type1" route="we" depart="233.52394368086402" />
<vehicle id="type1_177" type="type1" route="se" depart="234.45732100811915" />
<vehicle id="type1_178" type="type1" route="se" depart="239.18911323082327" />
<vehicle id="type1_179" type="type1" route="ns" depart="239.3621278619105" />
<vehicle id="type1_180" type="type1" route="se" depart="241.24564589293934" />
<vehicle id="type1_181" type="type1" route="es" depart="246.10304204272734" />
<vehicle id="type1_182" type="type1" route="sw" depart="246.78500270354021" />
<vehicle id="type1_183" type="type1" route="ns" depart="246.89379435603274" />
<vehicle id="type1_184" type="type1" route="sw" depart="248.189187466301" />
<vehicle id="type1_185" type="type1" route="wn" depart="249.7375499633528" />
<vehicle id="type1_186" type="type1" route="es" depart="251.63625854021183" />
<vehicle id="type1_187" type="type1" route="nw" depart="254.5425655130196" />
<vehicle id="type1_188" type="type1" route="se" depart="257.103815486311" />
<vehicle id="type1_189" type="type1" route="ns" depart="257.4995083899268" />
<vehicle id="type1_190" type="type1" route="sn" depart="261.582815130184" />
<vehicle id="type1_191" type="type1" route="se" depart="262.55167386540757" />
<vehicle id="type1_192" type="type1" route="es" depart="266.32824402386956" />
<vehicle id="type1_193" type="type1" route="en" depart="266.83661713114907" />
<vehicle id="type1_194" type="type1" route="sw" depart="268.8656069225162" />
<vehicle id="type1_195" type="type1" route="ns" depart="270.4179500922481" />
<vehicle id="type1_196" type="type1" route="ne" depart="270.7496174647907" />
<vehicle id="type1_197" type="type1" route="se" depart="271.0886145078408" />
<vehicle id="type1_198" type="type1" route="nw" depart="271.5138603827693" />
<vehicle id="type1_199" type="type1" route="ew" depart="276.57590465388006" />
<vehicle id="type1_200" type="type1" route="sn" depart="277.16720598782535" />
<vehicle id="type1_201" type="type1" route="nw" depart="277.7633647495166" />
<vehicle id="type1_202" type="type1" route="nw" depart="278.1720699321249" />
<vehicle id="type1_203" type="type1" route="en" depart="280.8004837943399" />
<vehicle id="type1_204" type="type1" route="en" depart="287.12404451172466" />
<vehicle id="type1_205" type="type1" route="sw" depart="287.5185068136886" />
<vehicle id="type1_206" type="type1" route="se" depart="287.82160334925175" />
<vehicle id="type1_207" type="type1" route="ne" depart="288.2821630623543" />
<vehicle id="type1_208" type="type1" route="ns" depart="288.4540876162471" />
<vehicle id="type1_209" type="type1" route="ne" depart="295.0348053169467" />
<vehicle id="type1_210" type="type1" route="nw" depart="295.20648287854925" />
<vehicle id="type1_211" type="type1" route="se" depart="299.7416763764142" />
<vehicle id="type1_212" type="type1" route="we" depart="302.00959973833375" />
<vehicle id="type1_213" type="type1" route="we" depart="302.3486590179048" />
<vehicle id="type1_214" type="type1" route="se" depart="304.8235361617774" />
<vehicle id="type1_215" type="type1" route="sw" depart="306.01766556004145" />
<vehicle id="type1_216" type="type1" route="ws" depart="307.20298216164355" />
<vehicle id="type1_217" type="type1" route="sn" depart="307.6589195794175" />
<vehicle id="type1_218" type="type1" route="nw" depart="308.10607241529243" />
<vehicle id="type1_219" type="type1" route="we" depart="309.6718236404775" />
<vehicle id="type1_220" type="type1" route="ws" depart="310.07442602689775" />
<vehicle id="type1_221" type="type1" route="we" depart="311.2936166998953" />
<vehicle id="type1_222" type="type1" route="es" depart="315.10642195586274" />
<vehicle id="type1_223" type="type1" route="ns" depart="317.0777306017806" />
<vehicle id="type1_224" type="type1" route="nw" depart="317.97051411174175" />
<vehicle id="type1_225" type="type1" route="sw" depart="318.2526625644608" />
<vehicle id="type1_226" type="type1" route="ns" depart="318.4803519986174" />
<vehicle id="type1_227" type="type1" route="es" depart="318.50751340262406" />
<vehicle id="type1_228" type="type1" route="ew" depart="320.24373150919445" />
<vehicle id="type1_229" type="type1" route="wn" depart="320.90713677754735" />
<vehicle id="type1_230" type="type1" route="sw" depart="321.0105215444063" />
<vehicle id="type1_231" type="type1" route="sw" depart="321.6950461090181" />
<vehicle id="type1_232" type="type1" route="ne" depart="325.6903954622606" />
<vehicle id="type1_233" type="type1" route="wn" depart="326.1844031342687" />
<vehicle id="type1_234" type="type1" route="en" depart="326.2697603010893" />
<vehicle id="type1_235" type="type1" route="en" depart="327.116567752625" />
<vehicle id="type1_236" type="type1" route="ws" depart="327.69303487298936" />
<vehicle id="type1_237" type="type1" route="nw" depart="328.9745198958495" />
<vehicle id="type1_238" type="type1" route="ew" depart="328.9945399142477" />
<vehicle id="type1_239" type="type1" route="ws" depart="330.71067827708936" />
<vehicle id="type1_240" type="type1" route="es" depart="330.75946335889677" />
<vehicle id="type1_241" type="type1" route="sn" depart="331.3828235981493" />
<vehicle id="type1_242" type="type1" route="we" depart="332.65226021563456" />
<vehicle id="type1_243" type="type1" route="se" depart="333.3460909997704" />
<vehicle id="type1_244" type="type1" route="sn" depart="335.8504777590831" />
<vehicle id="type1_245" type="type1" route="ws" depart="339.94820440224305" />
<vehicle id="type1_246" type="type1" route="nw" depart="340.3828005407162" />
<vehicle id="type1_247" type="type1" route="we" depart="340.7117583217001" />
<vehicle id="type1_248" type="type1" route="ne" depart="340.85345823594497" />
<vehicle id="type1_249" type="type1" route="se" depart="340.99664080645294" />
<vehicle id="type1_250" type="type1" route="ws" depart="341.1052460147361" />
<vehicle id="type1_251" type="type1" route="en" depart="343.0740582434584" />
<vehicle id="type1_252" type="type1" route="ew" depart="347.88734456070495" />
<vehicle id="type1_253" type="type1" route="wn" depart="350.85482986901894" />
<vehicle id="type1_254" type="type1" route="sw" depart="353.6440165676754" />
<vehicle id="type1_255" type="type1" route="we" depart="358.30459705390314" />
<vehicle id="type1_256" type="type1" route="ws" depart="358.4621292523893" />
<vehicle id="type1_257" type="type1" route="nw" depart="358.6139186033609" />
<vehicle id="type1_258" type="type1" route="ne" depart="359.6543031206147" />
<vehicle id="type1_259" type="type1" route="sw" depart="363.1748083194284" />
<vehicle id="type1_260" type="type1" route="se" depart="363.6332534224029" />
<vehicle id="type1_261" type="type1" route="ns" depart="364.05522455662924" />
<vehicle id="type1_262" type="type1" route="ws" depart="364.84602143164966" />
<vehicle id="type1_263" type="type1" route="ne" depart="365.882590217728" />
<vehicle id="type1_264" type="type1" route="ew" depart="365.9987972833718" />
<vehicle id="type1_265" type="type1" route="we" depart="367.23549152995395" />
<vehicle id="type1_266" type="type1" route="wn" depart="369.3899684881854" />
<vehicle id="type1_267" type="type1" route="ws" depart="369.99109366368845" />
<vehicle id="type1_268" type="type1" route="ns" depart="371.10793617213744" />
<vehicle id="type1_269" type="type1" route="ew" depart="371.6583395405975" />
<vehicle id="type1_270" type="type1" route="se" depart="372.5588169711217" />
<vehicle id="type1_271" type="type1" route="ws" depart="372.95018403086954" />
<vehicle id="type1_272" type="type1" route="we" depart="374.5405619745531" />
<vehicle id="type1_273" type="type1" route="ws" depart="375.1022931232097" />
<vehicle id="type1_274" type="type1" route="we" depart="377.50027138425645" />
<vehicle id="type1_275" type="type1" route="en" depart="377.5160836509877" />
<vehicle id="type1_276" type="type1" route="se" depart="378.27638306737646" />
<vehicle id="type1_277" type="type1" route="sw" depart="379.1934303268453" />
<vehicle id="type1_278" type="type1" route="we" depart="379.9223132610756" />
<vehicle id="type1_279" type="type1" route="we" depart="381.78145129039615" />
<vehicle id="type1_280" type="type1" route="en" depart="383.21550039493997" />
<vehicle id="type1_281" type="type1" route="sw" depart="383.2330455273812" />
<vehicle id="type1_282" type="type1" route="nw" depart="385.0085800172544" />
<vehicle id="type1_283" type="type1" route="wn" depart="385.77742423949314" />
<vehicle id="type1_284" type="type1" route="ns" depart="390.1110889430493" />
<vehicle id="type1_285" type="type1" route="sn" depart="390.12959775484427" />
<vehicle id="type1_286" type="type1" route="en" depart="391.25690318015927" />
<vehicle id="type1_287" type="type1" route="sn" depart="391.3229738937178" />
<vehicle id="type1_288" type="type1" route="nw" depart="393.6594226685612" />
<vehicle id="type1_289" type="type1" route="we" depart="393.8596774600345" />
<vehicle id="type1_290" type="type1" route="ew" depart="395.2995575556942" />
<vehicle id="type1_291" type="type1" route="es" depart="399.0799106958459" />
<vehicle id="type1_292" type="type1" route="sn" depart="399.93418415701467" />
<vehicle id="type1_293" type="type1" route="ew" depart="400.66027535927395" />
<vehicle id="type1_294" type="type1" route="we" depart="402.68322055928655" />
<vehicle id="type1_295" type="type1" route="ws" depart="403.3970944397628" />
<vehicle id="type1_296" type="type1" route="ne" depart="405.3386511103263" />
<vehicle id="type1_297" type="type1" route="es" depart="406.35513169613733" />
<vehicle id="type1_298" type="type1" route="ns" depart="408.2805611576508" />
<vehicle id="type1_299" type="type1" route="se" depart="411.09881661633386" />
<vehicle id="type1_300" type="type1" route="ns" depart="412.3369888866744" />
</routes>