<routes>
            <vType id="type1" accel="0.8" decel="4.5" sigma="0.5" length="5" maxSpeed="70"/>
            <vType id="rescue" vClass="emergency" speedFactor="1.5" guiShape="emergency">
                <param key="has.bluelight.device" value="true"/>
            </vType>
            <route id="ne" edges="ni eo"/>
            <route id="ns" edges="ni so"/>
            <route id="nw" edges="ni wo"/>
            <route id="en" edges="ei no"/>
            <route id="es" edges="ei so"/>
            <route id="ew" edges="ei wo"/>
            <route id="sn" edges="si no"/>
            <route id="se" edges="si eo"/>
            <route id="sw" edges="si wo"/>
            <route id="wn" edges="wi no"/>
            <route id="we" edges="wi eo"/>
            <route id="ws" edges="wi so"/>
        <vehicle id="type1_1" type="type1" route="wn" depart="0.38337421884112294" />
<vehicle id="type1_2" type="type1" route="sn" depart="1.1971606648155901" />
<vehicle id="type1_3" type="type1" route="en" depart="2.0470001123718062" />
<vehicle id="type1_4" type="type1" route="sn" depart="3.9508143727307607" />
<vehicle id="type1_5" type="type1" route="we" depart="6.480450342499855" />
<vehicle id="type1_6" type="type1" route="ne" depart="9.283030856777089" />
<vehicle id="type1_7" type="type1" route="ew" depart="9.660523579533589" />
<vehicle id="emv_1" type="rescue" route="ws" depart="15.149346758679524" />
<vehicle id="type1_8" type="type1" route="ne" depart="15.629102485826822" />
<vehicle id="type1_9" type="type1" route="nw" depart="17.026117866973507" />
<vehicle id="type1_10" type="type1" route="se" depart="19.95257946355645" />
<vehicle id="type1_11" type="type1" route="we" depart="25.661211234928256" />
<vehicle id="type1_12" type="type1" route="nw" depart="26.397618097859535" />
<vehicle id="type1_13" type="type1" route="we" depart="29.126557269915793" />
<vehicle id="type1_14" type="type1" route="sn" depart="29.774691908909105" />
<vehicle id="emv_2" type="rescue" route="en" depart="30.12522648724084" />
<vehicle id="type1_15" type="type1" route="wn" depart="32.717638837286835" />
<vehicle id="type1_16" type="type1" route="wn" depart="35.221062521483034" />
<vehicle id="type1_17" type="type1" route="nw" depart="36.15199873493649" />
<vehicle id="type1_18" type="type1" route="es" depart="36.54429385311933" />
<vehicle id="type1_19" type="type1" route="en" depart="37.02120326888871" />
<vehicle id="type1_20" type="type1" route="sw" depart="37.02377460339549" />
<vehicle id="type1_21" type="type1" route="sn" depart="39.491318219476966" />
<vehicle id="type1_22" type="type1" route="wn" depart="39.72923082553989" />
<vehicle id="type1_23" type="type1" route="sw" depart="40.73113381042992" />
<vehicle id="emv_3" type="rescue" route="en" depart="41.5178374023994" />
<vehicle id="type1_24" type="type1" route="en" depart="43.012939497705396" />
<vehicle id="type1_25" type="type1" route="sn" depart="43.39444930958207" />
<vehicle id="type1_26" type="type1" route="wn" depart="43.587215649523145" />
<vehicle id="type1_27" type="type1" route="sw" depart="43.69073044574168" />
<vehicle id="type1_28" type="type1" route="ns" depart="44.07969359325046" />
<vehicle id="type1_29" type="type1" route="wn" depart="44.22176910707108" />
<vehicle id="type1_30" type="type1" route="wn" depart="44.53164039086028" />
<vehicle id="type1_31" type="type1" route="ns" depart="45.31865314376522" />
<vehicle id="type1_32" type="type1" route="en" depart="45.55878234031976" />
<vehicle id="emv_4" type="rescue" route="se" depart="48.07799958321712" />
<vehicle id="type1_33" type="type1" route="sn" depart="49.2398284789917" />
<vehicle id="type1_34" type="type1" route="es" depart="50.230236806224475" />
<vehicle id="type1_35" type="type1" route="sw" depart="50.67756375643327" />
<vehicle id="type1_36" type="type1" route="ns" depart="51.79386813789375" />
<vehicle id="type1_37" type="type1" route="es" depart="51.95449813605707" />
<vehicle id="type1_38" type="type1" route="we" depart="53.247992716737635" />
<vehicle id="type1_39" type="type1" route="nw" depart="55.84271877303755" />
<vehicle id="type1_40" type="type1" route="sn" depart="56.46834666277134" />
<vehicle id="type1_41" type="type1" route="ew" depart="62.30282381736327" />
<vehicle id="type1_42" type="type1" route="ne" depart="63.32645959257028" />
<vehicle id="type1_43" type="type1" route="ne" depart="65.62394797082969" />
<vehicle id="type1_44" type="type1" route="ew" depart="66.11965319449813" />
<vehicle id="type1_45" type="type1" route="es" depart="66.12748600082034" />
<vehicle id="type1_46" type="type1" route="wn" depart="66.34971542653987" />
<vehicle id="type1_47" type="type1" route="sn" depart="71.01875328483752" />
<vehicle id="type1_48" type="type1" route="en" depart="71.61114623277895" />
<vehicle id="type1_49" type="type1" route="es" depart="72.13429062970901" />
<vehicle id="type1_50" type="type1" route="wn" depart="72.61663402351108" />
<vehicle id="type1_51" type="type1" route="nw" depart="73.20253771314833" />
<vehicle id="type1_52" type="type1" route="sn" depart="73.86100064414255" />
<vehicle id="type1_53" type="type1" route="nw" depart="76.33859399764698" />
<vehicle id="type1_54" type="type1" route="wn" depart="77.86968774775049" />
<vehicle id="type1_55" type="type1" route="se" depart="78.74442324622184" />
<vehicle id="type1_56" type="type1" route="nw" depart="79.07806117440316" />
<vehicle id="emv_5" type="rescue" route="ns" depart="80.6659226596184" />
<vehicle id="type1_57" type="type1" route="se" depart="85.08466023494292" />
<vehicle id="type1_58" type="type1" route="ne" depart="86.15845267825546" />
<vehicle id="type1_59" type="type1" route="ns" depart="88.12991898318421" />
<vehicle id="type1_60" type="type1" route="ns" depart="89.08551199763174" />
<vehicle id="type1_61" type="type1" route="wn" depart="91.87777153115339" />
<vehicle id="type1_62" type="type1" route="sn" depart="92.62629513797344" />
<vehicle id="type1_63" type="type1" route="se" depart="93.46223874784283" />
<vehicle id="type1_64" type="type1" route="sn" depart="93.95754269584948" />
<vehicle id="type1_65" type="type1" route="es" depart="94.02596370110439" />
<vehicle id="type1_66" type="type1" route="ws" depart="99.99974104224961" />
<vehicle id="type1_67" type="type1" route="ew" depart="101.69198566766693" />
<vehicle id="type1_68" type="type1" route="sw" depart="103.72899963176786" />
<vehicle id="type1_69" type="type1" route="en" depart="104.68274272364332" />
<vehicle id="type1_70" type="type1" route="ne" depart="104.69175894362075" />
<vehicle id="type1_71" type="type1" route="we" depart="104.69838412714381" />
<vehicle id="type1_72" type="type1" route="wn" depart="104.80620661177991" />
<vehicle id="type1_73" type="type1" route="sn" depart="105.01685247684414" />
<vehicle id="emv_6" type="rescue" route="ns" depart="106.38985330232448" />
<vehicle id="type1_74" type="type1" route="se" depart="109.34015233465472" />
<vehicle id="type1_75" type="type1" route="en" depart="109.52184861415282" />
<vehicle id="type1_76" type="type1" route="ns" depart="110.24889647399473" />
<vehicle id="type1_77" type="type1" route="sw" depart="112.0940969565918" />
<vehicle id="emv_7" type="rescue" route="ns" depart="113.05416116735861" />
<vehicle id="type1_78" type="type1" route="es" depart="115.67439134428743" />
<vehicle id="type1_79" type="type1" route="sn" depart="115.82432435270181" />
<vehicle id="type1_80" type="type1" route="wn" depart="116.27935019220956" />
<vehicle id="emv_8" type="rescue" route="en" depart="117.80044617945403" />
<vehicle id="type1_81" type="type1" route="nw" depart="118.37448032557147" />
<vehicle id="type1_82" type="type1" route="en" depart="118.41034763761341" />
<vehicle id="type1_83" type="type1" route="ns" depart="119.84771910816809" />
<vehicle id="type1_84" type="type1" route="es" depart="120.16166991242098" />
<vehicle id="type1_85" type="type1" route="sn" depart="121.70544339057008" />
<vehicle id="type1_86" type="type1" route="ws" depart="121.76723950724968" />
<vehicle id="type1_87" type="type1" route="ws" depart="121.89157682367016" />
<vehicle id="type1_88" type="type1" route="we" depart="124.65215438437923" />
<vehicle id="type1_89" type="type1" route="en" depart="124.6933239154437" />
<vehicle id="type1_90" type="type1" route="ew" depart="126.85109838601458" />
<vehicle id="type1_91" type="type1" route="we" depart="127.42881523599301" />
<vehicle id="type1_92" type="type1" route="se" depart="127.87189677936162" />
<vehicle id="type1_93" type="type1" route="se" depart="128.9189402057002" />
<vehicle id="type1_94" type="type1" route="we" depart="131.83319508942108" />
<vehicle id="type1_95" type="type1" route="se" depart="132.3544755836117" />
<vehicle id="type1_96" type="type1" route="ne" depart="133.8794319076121" />
<vehicle id="type1_97" type="type1" route="ew" depart="136.48171681815836" />
<vehicle id="type1_98" type="type1" route="en" depart="137.3536704759125" />
<vehicle id="type1_99" type="type1" route="es" depart="140.1668014908654" />
<vehicle id="type1_100" type="type1" route="es" depart="140.62360120382803" />
<vehicle id="type1_101" type="type1" route="sw" depart="142.19790660657478" />
<vehicle id="type1_102" type="type1" route="se" depart="142.38889384823062" />
<vehicle id="type1_103" type="type1" route="ew" depart="145.4154766676364" />
<vehicle id="type1_104" type="type1" route="es" depart="145.53667886029135" />
<vehicle id="type1_105" type="type1" route="sn" depart="146.79198773864942" />
<vehicle id="type1_106" type="type1" route="wn" depart="148.05636826465232" />
<vehicle id="type1_107" type="type1" route="ws" depart="148.67292287878774" />
<vehicle id="type1_108" type="type1" route="ew" depart="149.96071224052014" />
<vehicle id="type1_109" type="type1" route="se" depart="151.3890275308342" />
<vehicle id="emv_9" type="rescue" route="nw" depart="151.44543131738462" />
<vehicle id="type1_110" type="type1" route="se" depart="151.62318863664527" />
<vehicle id="type1_111" type="type1" route="ns" depart="152.45123091303228" />
<vehicle id="type1_112" type="type1" route="ws" depart="153.71980967134147" />
<vehicle id="type1_113" type="type1" route="ne" depart="153.98356783417302" />
<vehicle id="type1_114" type="type1" route="we" depart="154.26626427966895" />
<vehicle id="type1_115" type="type1" route="ws" depart="154.30294807870612" />
<vehicle id="type1_116" type="type1" route="ew" depart="155.51349767991485" />
<vehicle id="type1_117" type="type1" route="nw" depart="160.0453361760373" />
<vehicle id="type1_118" type="type1" route="es" depart="163.4187300147195" />
<vehicle id="type1_119" type="type1" route="ne" depart="163.5910860309375" />
<vehicle id="type1_120" type="type1" route="ws" depart="164.12671490594764" />
<vehicle id="type1_121" type="type1" route="se" depart="165.01842870974613" />
<vehicle id="emv_10" type="rescue" route="wn" depart="165.94976920291023" />
<vehicle id="type1_122" type="type1" route="wn" depart="168.94062522139706" />
<vehicle id="type1_123" type="type1" route="en" depart="169.50397685911938" />
<vehicle id="type1_124" type="type1" route="wn" depart="170.69414885964525" />
<vehicle id="type1_125" type="type1" route="wn" depart="171.3713437820242" />
<vehicle id="type1_126" type="type1" route="ew" depart="173.24798652259858" />
<vehicle id="type1_127" type="type1" route="we" depart="173.33934280831477" />
<vehicle id="type1_128" type="type1" route="ne" depart="174.02914969384446" />
<vehicle id="type1_129" type="type1" route="ew" depart="175.01987599712734" />
<vehicle id="type1_130" type="type1" route="se" depart="176.7052179522913" />
<vehicle id="type1_131" type="type1" route="we" depart="178.9943983077497" />
<vehicle id="type1_132" type="type1" route="nw" depart="179.10700562542868" />
<vehicle id="emv_11" type="rescue" route="ew" depart="179.56921087833865" />
<vehicle id="type1_133" type="type1" route="ne" depart="183.83580398237044" />
<vehicle id="type1_134" type="type1" route="sw" depart="184.65167017538832" />
<vehicle id="type1_135" type="type1" route="ew" depart="188.3537160961209" />
<vehicle id="type1_136" type="type1" route="sn" depart="189.26398444268918" />
<vehicle id="type1_137" type="type1" route="ew" depart="189.83292743957946" />
<vehicle id="type1_138" type="type1" route="sn" depart="190.865233605884" />
<vehicle id="type1_139" type="type1" route="wn" depart="191.031340753128" />
<vehicle id="emv_12" type="rescue" route="sn" depart="191.3438496109956" />
<vehicle id="type1_140" type="type1" route="nw" depart="191.5419236923431" />
<vehicle id="type1_141" type="type1" route="se" depart="192.46334602147667" />
<vehicle id="emv_13" type="rescue" route="ew" depart="197.25175524920832" />
<vehicle id="type1_142" type="type1" route="sw" depart="197.72526197128457" />
<vehicle id="type1_143" type="type1" route="en" depart="199.51854189925461" />
<vehicle id="type1_144" type="type1" route="we" depart="199.95150043240767" />
<vehicle id="type1_145" type="type1" route="nw" depart="200.78913744096832" />
<vehicle id="type1_146" type="type1" route="en" depart="201.78716287349485" />
<vehicle id="type1_147" type="type1" route="ew" depart="202.526763448092" />
<vehicle id="type1_148" type="type1" route="ne" depart="203.61022616993654" />
<vehicle id="type1_149" type="type1" route="nw" depart="204.96892235194878" />
<vehicle id="type1_150" type="type1" route="en" depart="208.22476693326325" />
<vehicle id="type1_151" type="type1" route="nw" depart="208.9709881462042" />
<vehicle id="type1_152" type="type1" route="wn" depart="210.92826109745621" />
<vehicle id="type1_153" type="type1" route="nw" depart="211.1212060872912" />
<vehicle id="type1_154" type="type1" route="ne" depart="211.828789249286" />
<vehicle id="type1_155" type="type1" route="se" depart="212.5133955643988" />
<vehicle id="type1_156" type="type1" route="en" depart="214.7292989324358" />
<vehicle id="type1_157" type="type1" route="nw" depart="215.72731463121033" />
<vehicle id="type1_158" type="type1" route="sn" depart="216.01034261016727" />
<vehicle id="type1_159" type="type1" route="ew" depart="217.82818180709043" />
<vehicle id="type1_160" type="type1" route="nw" depart="218.54388423042988" />
<vehicle id="type1_161" type="type1" route="nw" depart="218.95493631279876" />
<vehicle id="type1_162" type="type1" route="se" depart="219.99878442399213" />
<vehicle id="type1_163" type="type1" route="we" depart="222.62441534796562" />
<vehicle id="emv_14" type="rescue" route="se" depart="223.25426208961363" />
<vehicle id="emv_15" type="rescue" route="se" depart="224.11473765436597" />
<vehicle id="type1_164" type="type1" route="ns" depart="225.65378262357785" />
<vehicle id="type1_165" type="type1" route="se" depart="226.15066666032592" />
<vehicle id="type1_166" type="type1" route="es" depart="230.257611246088" />
<vehicle id="type1_167" type="type1" route="sw" depart="232.19553896981398" />
<vehicle id="type1_168" type="type1" route="ns" depart="234.65027836284176" />
<vehicle id="type1_169" type="type1" route="sw" depart="236.91325593708393" />
<vehicle id="type1_170" type="type1" route="wn" depart="238.6581244214961" />
<vehicle id="type1_171" type="type1" route="es" depart="238.947764198634" />
<vehicle id="emv_16" type="rescue" route="nw" depart="241.37332993485578" />
<vehicle id="type1_172" type="type1" route="se" depart="242.50830862782658" />
<vehicle id="type1_173" type="type1" route="ns" depart="246.95604313114745" />
<vehicle id="type1_174" type="type1" route="sn" depart="247.37288254910288" />
<vehicle id="type1_175" type="type1" route="se" depart="247.514966830755" />
<vehicle id="type1_176" type="type1" route="es" depart="248.3651940039309" />
<vehicle id="type1_177" type="type1" route="en" depart="250.60987141217046" />
<vehicle id="type1_178" type="type1" route="sw" depart="251.10040856272516" />
<vehicle id="type1_179" type="type1" route="ns" depart="251.80387062597288" />
<vehicle id="type1_180" type="type1" route="ne" depart="252.94786392836045" />
<vehicle id="type1_181" type="type1" route="se" depart="252.96175767166858" />
<vehicle id="type1_182" type="type1" route="nw" depart="253.45635286167754" />
<vehicle id="type1_183" type="type1" route="ew" depart="253.68779751139573" />
<vehicle id="emv_17" type="rescue" route="sn" depart="257.0802229500085" />
<vehicle id="type1_184" type="type1" route="nw" depart="257.7616912154824" />
<vehicle id="type1_185" type="type1" route="nw" depart="258.796198454695" />
<vehicle id="type1_186" type="type1" route="en" depart="263.58005058162183" />
<vehicle id="type1_187" type="type1" route="en" depart="264.61042428696754" />
<vehicle id="type1_188" type="type1" route="sw" depart="265.9383857056616" />
<vehicle id="type1_189" type="type1" route="se" depart="266.78457718769846" />
<vehicle id="type1_190" type="type1" route="ne" depart="269.31137194472564" />
<vehicle id="type1_191" type="type1" route="ns" depart="271.935504193344" />
<vehicle id="type1_192" type="type1" route="ne" depart="273.1353198315211" />
<vehicle id="type1_193" type="type1" route="nw" depart="274.87139942915627" />
<vehicle id="type1_194" type="type1" route="se" depart="278.9915179843518" />
<vehicle id="type1_195" type="type1" route="we" depart="282.6968094953116" />
<vehicle id="type1_196" type="type1" route="we" depart="283.2922160061433" />
<vehicle id="type1_197" type="type1" route="se" depart="284.99162741153623" />
<vehicle id="type1_198" type="type1" route="sw" depart="286.9599424992089" />
<vehicle id="type1_199" type="type1" route="ws" depart="289.96788129440796" />
<vehicle id="type1_200" type="type1" route="sn" depart="290.8839278210732" />
<vehicle id="type1_201" type="type1" route="nw" depart="292.21863134303914" />
<vehicle id="type1_202" type="type1" route="we" depart="293.37487121890314" />
<vehicle id="type1_203" type="type1" route="ws" depart="293.4359926174155" />
<vehicle id="type1_204" type="type1" route="we" depart="293.9583117727548" />
<vehicle id="type1_205" type="type1" route="es" depart="295.107816525327" />
<vehicle id="type1_206" type="type1" route="ns" depart="296.363561839361" />
<vehicle id="type1_207" type="type1" route="nw" depart="299.0063531930256" />
<vehicle id="type1_208" type="type1" route="sw" depart="301.0299460559424" />
<vehicle id="type1_209" type="type1" route="ns" depart="303.0760350071931" />
<vehicle id="type1_210" type="type1" route="es" depart="303.08981502015763" />
<vehicle id="type1_211" type="type1" route="ew" depart="304.95020011706293" />
<vehicle id="type1_212" type="type1" route="wn" depart="306.53770298437684" />
<vehicle id="type1_213" type="type1" route="sw" depart="309.24906844471934" />
<vehicle id="type1_214" type="type1" route="sw" depart="310.5391355449699" />
<vehicle id="type1_215" type="type1" route="ne" depart="313.82579013731714" />
<vehicle id="type1_216" type="type1" route="wn" depart="314.14899730209305" />
<vehicle id="type1_217" type="type1" route="en" depart="316.70393566391215" />
<vehicle id="type1_218" type="type1" route="en" depart="318.837167362766" />
<vehicle id="type1_219" type="type1" route="ws" depart="319.1419169399671" />
<vehicle id="type1_220" type="type1" route="nw" depart="320.07581854244114" />
<vehicle id="type1_221" type="type1" route="ew" depart="320.120547466118" />
<vehicle id="type1_222" type="type1" route="ws" depart="322.3279819962668" />
<vehicle id="type1_223" type="type1" route="es" depart="324.01096946710123" />
<vehicle id="type1_224" type="type1" route="sn" depart="324.0811815243964" />
<vehicle id="type1_225" type="type1" route="we" depart="324.458325060854" />
<vehicle id="type1_226" type="type1" route="se" depart="324.59833463169326" />
<vehicle id="type1_227" type="type1" route="sn" depart="325.4117236404417" />
<vehicle id="type1_228" type="type1" route="ws" depart="329.6723021815494" />
<vehicle id="type1_229" type="type1" route="nw" depart="331.189172710037" />
<vehicle id="type1_230" type="type1" route="we" depart="331.469477259002" />
<vehicle id="type1_231" type="type1" route="ne" depart="331.6146394535095" />
<vehicle id="type1_232" type="type1" route="se" depart="334.3863639460398" />
<vehicle id="type1_233" type="type1" route="ws" depart="335.3534717266889" />
<vehicle id="type1_234" type="type1" route="en" depart="336.4648362748462" />
<vehicle id="type1_235" type="type1" route="ew" depart="337.78977358418564" />
<vehicle id="type1_236" type="type1" route="wn" depart="337.95571743189765" />
<vehicle id="type1_237" type="type1" route="sw" depart="338.0470636672812" />
<vehicle id="emv_18" type="rescue" route="we" depart="338.9921517011934" />
<vehicle id="type1_238" type="type1" route="ws" depart="340.42070011417366" />
<vehicle id="type1_239" type="type1" route="nw" depart="340.80214070078176" />
<vehicle id="type1_240" type="type1" route="ne" depart="341.0357400259628" />
<vehicle id="type1_241" type="type1" route="sw" depart="342.1719639249542" />
<vehicle id="type1_242" type="type1" route="se" depart="342.519255321316" />
<vehicle id="type1_243" type="type1" route="ns" depart="344.34842055379715" />
<vehicle id="type1_244" type="type1" route="ws" depart="344.6688207618152" />
<vehicle id="emv_19" type="rescue" route="ne" depart="345.77614652210167" />
<vehicle id="type1_245" type="type1" route="ew" depart="349.63832225301553" />
<vehicle id="type1_246" type="type1" route="we" depart="350.0195739431764" />
<vehicle id="type1_247" type="type1" route="wn" depart="352.92569417139345" />
<vehicle id="type1_248" type="type1" route="ws" depart="352.9342182865918" />
<vehicle id="type1_249" type="type1" route="ns" depart="353.6337575228077" />
<vehicle id="type1_250" type="type1" route="ew" depart="354.4159411715322" />
<vehicle id="type1_251" type="type1" route="se" depart="354.46919457236504" />
<vehicle id="type1_252" type="type1" route="ws" depart="357.0128399035095" />
<vehicle id="type1_253" type="type1" route="we" depart="358.01575782668357" />
<vehicle id="type1_254" type="type1" route="ws" depart="360.3646913383651" />
<vehicle id="emv_20" type="rescue" route="we" depart="361.39196961965644" />
<vehicle id="type1_255" type="type1" route="en" depart="362.30782289753114" />
<vehicle id="type1_256" type="type1" route="se" depart="364.3221185123603" />
<vehicle id="type1_257" type="type1" route="sw" depart="364.53281900268604" />
<vehicle id="type1_258" type="type1" route="we" depart="365.93880732484706" />
<vehicle id="type1_259" type="type1" route="we" depart="366.1433246005289" />
<vehicle id="emv_21" type="rescue" route="en" depart="366.3559928986251" />
<vehicle id="type1_260" type="type1" route="sw" depart="366.47807277243714" />
<vehicle id="type1_261" type="type1" route="nw" depart="368.4317712523496" />
<vehicle id="type1_262" type="type1" route="wn" depart="369.6453547591559" />
<vehicle id="type1_263" type="type1" route="ns" depart="372.1770778514548" />
<vehicle id="type1_264" type="type1" route="sn" depart="372.72662899342066" />
<vehicle id="type1_265" type="type1" route="en" depart="374.355992268872" />
<vehicle id="type1_266" type="type1" route="sn" depart="374.80448197859937" />
<vehicle id="type1_267" type="type1" route="nw" depart="375.6042512083521" />
<vehicle id="type1_268" type="type1" route="we" depart="376.01441325078554" />
<vehicle id="type1_269" type="type1" route="ew" depart="376.85512879227394" />
<vehicle id="type1_270" type="type1" route="es" depart="380.14231023460275" />
<vehicle id="type1_271" type="type1" route="sn" depart="381.35125182792825" />
<vehicle id="type1_272" type="type1" route="ew" depart="382.6278424169915" />
<vehicle id="type1_273" type="type1" route="we" depart="382.7174684776462" />
<vehicle id="type1_274" type="type1" route="ws" depart="383.7494234495299" />
<vehicle id="type1_275" type="type1" route="ne" depart="383.9244830338684" />
<vehicle id="type1_276" type="type1" route="es" depart="383.944651894288" />
<vehicle id="type1_277" type="type1" route="ns" depart="384.69432407264554" />
<vehicle id="type1_278" type="type1" route="se" depart="388.4353581456057" />
<vehicle id="type1_279" type="type1" route="ns" depart="391.4007968972318" />
</routes>