<routes>
            <vType id="type1" accel="0.8" decel="4.5" sigma="0.5" length="5" maxSpeed="70"/>
            <vType id="rescue" vClass="emergency" speedFactor="1.5" guiShape="emergency">
                <param key="has.bluelight.device" value="true"/>
            </vType>
            <route id="ne" edges="ni eo"/>
            <route id="ns" edges="ni so"/>
            <route id="nw" edges="ni wo"/>
            <route id="en" edges="ei no"/>
            <route id="es" edges="ei so"/>
            <route id="ew" edges="ei wo"/>
            <route id="sn" edges="si no"/>
            <route id="se" edges="si eo"/>
            <route id="sw" edges="si wo"/>
            <route id="wn" edges="wi no"/>
            <route id="we" edges="wi eo"/>
            <route id="ws" edges="wi so"/>
        
            <personFlow id="p_sn" begin="0" end="600" period="50">
                <walk route="sn"/>
            </personFlow>
                         
            <personFlow id="p_ns" begin="0" end="600" period="50">
                <walk route="ns"/>
            </personFlow>
                         
            <personFlow id="p_ew" begin="0" end="600" period="50">
                <walk route="ew"/>
            </personFlow>
                         
            <personFlow id="p_we" begin="0" end="600" period="50">
                <walk route="we"/>
            </personFlow>
                         <vehicle id="type1_1" type="type1" route="wn" depart="1.2123406729107151" />
<vehicle id="type1_2" type="type1" route="ns" depart="1.4332678469737126" />
<vehicle id="type1_3" type="type1" route="se" depart="2.565628539064737" />
<vehicle id="type1_4" type="type1" route="es" depart="4.410306104476058" />
<vehicle id="type1_5" type="type1" route="en" depart="4.79122426877498" />
<vehicle id="type1_6" type="type1" route="se" depart="5.53330163002147" />
<vehicle id="type1_7" type="type1" route="ns" depart="6.148008430608069" />
<vehicle id="type1_8" type="type1" route="sw" depart="7.223468905315826" />
<vehicle id="type1_9" type="type1" route="ew" depart="7.673139426648723" />
<vehicle id="type1_10" type="type1" route="en" depart="7.851097323193436" />
<vehicle id="type1_11" type="type1" route="wn" depart="8.245029775090694" />
<vehicle id="type1_12" type="type1" route="ws" depart="8.679458079678401" />
<vehicle id="type1_13" type="type1" route="ws" depart="8.79521125200219" />
<vehicle id="type1_14" type="type1" route="en" depart="9.77206948529921" />
<vehicle id="type1_15" type="type1" route="ne" depart="10.09454372501074" />
<vehicle id="type1_16" type="type1" route="wn" depart="11.590937412738317" />
<vehicle id="type1_17" type="type1" route="wn" depart="11.646495167599365" />
<vehicle id="type1_18" type="type1" route="sn" depart="12.332110597990038" />
<vehicle id="type1_19" type="type1" route="ew" depart="12.492540476158917" />
<vehicle id="emv_1" type="rescue" route="ws" depart="13.206371658797023" />
<vehicle id="type1_20" type="type1" route="ns" depart="13.391153584102934" />
<vehicle id="type1_21" type="type1" route="we" depart="14.039184379879302" />
<vehicle id="type1_22" type="type1" route="en" depart="14.292436479769561" />
<vehicle id="emv_2" type="rescue" route="wn" depart="15.891395647104305" />
<vehicle id="type1_23" type="type1" route="ne" depart="17.07648861841201" />
<vehicle id="type1_24" type="type1" route="wn" depart="17.419206629356612" />
<vehicle id="type1_25" type="type1" route="ws" depart="17.773762115163155" />
<vehicle id="type1_26" type="type1" route="ws" depart="17.942155846795963" />
<vehicle id="type1_27" type="type1" route="se" depart="19.41695460899732" />
<vehicle id="type1_28" type="type1" route="en" depart="19.504969621186493" />
<vehicle id="type1_29" type="type1" route="we" depart="19.770379649757672" />
<vehicle id="type1_30" type="type1" route="ew" depart="20.514067210774318" />
<vehicle id="type1_31" type="type1" route="wn" depart="20.59456675043837" />
<vehicle id="type1_32" type="type1" route="we" depart="21.26884482619061" />
<vehicle id="type1_33" type="type1" route="se" depart="21.415976968930558" />
<vehicle id="type1_34" type="type1" route="sn" depart="22.620352512186514" />
<vehicle id="type1_35" type="type1" route="ws" depart="22.69204046471873" />
<vehicle id="type1_36" type="type1" route="ns" depart="23.08762740895667" />
<vehicle id="type1_37" type="type1" route="sn" depart="23.426002302588067" />
<vehicle id="type1_38" type="type1" route="ew" depart="23.5648166751583" />
<vehicle id="type1_39" type="type1" route="ns" depart="23.85309188300324" />
<vehicle id="type1_40" type="type1" route="ne" depart="24.147052429541116" />
<vehicle id="type1_41" type="type1" route="en" depart="24.74497229194511" />
<vehicle id="type1_42" type="type1" route="sw" depart="25.53656419603419" />
<vehicle id="type1_43" type="type1" route="we" depart="26.31922621399916" />
<vehicle id="type1_44" type="type1" route="sn" depart="27.13719323188869" />
<vehicle id="type1_45" type="type1" route="en" depart="28.115801434319845" />
<vehicle id="type1_46" type="type1" route="en" depart="28.211057827811587" />
<vehicle id="type1_47" type="type1" route="ns" depart="28.67174691503297" />
<vehicle id="emv_3" type="rescue" route="we" depart="29.022674142226894" />
<vehicle id="type1_48" type="type1" route="sw" depart="29.190938008901917" />
<vehicle id="type1_49" type="type1" route="ws" depart="29.27559803485394" />
<vehicle id="type1_50" type="type1" route="nw" depart="29.94854326620057" />
<vehicle id="type1_51" type="type1" route="nw" depart="29.95204889959916" />
<vehicle id="emv_4" type="rescue" route="ew" depart="30.552583919879556" />
<vehicle id="type1_52" type="type1" route="sw" depart="31.25441279783122" />
<vehicle id="type1_53" type="type1" route="en" depart="31.871718613536153" />
<vehicle id="type1_54" type="type1" route="ne" depart="32.34287282019476" />
<vehicle id="type1_55" type="type1" route="wn" depart="32.47572961919661" />
<vehicle id="type1_56" type="type1" route="se" depart="32.99976509726623" />
<vehicle id="type1_57" type="type1" route="es" depart="33.51063554281067" />
<vehicle id="type1_58" type="type1" route="wn" depart="34.02136025600722" />
<vehicle id="type1_59" type="type1" route="ns" depart="35.998609432546026" />
<vehicle id="type1_60" type="type1" route="sn" depart="36.69423596515583" />
<vehicle id="type1_61" type="type1" route="ew" depart="36.922542075502896" />
<vehicle id="type1_62" type="type1" route="sw" depart="37.77313438352651" />
<vehicle id="type1_63" type="type1" route="sw" depart="37.87751611438171" />
<vehicle id="type1_64" type="type1" route="ew" depart="38.46213136174291" />
<vehicle id="type1_65" type="type1" route="sn" depart="38.56173537249708" />
<vehicle id="type1_66" type="type1" route="ns" depart="38.8879077480068" />
<vehicle id="type1_67" type="type1" route="nw" depart="39.0946980524241" />
<vehicle id="type1_68" type="type1" route="se" depart="40.11974590569349" />
<vehicle id="type1_69" type="type1" route="nw" depart="40.596708428222655" />
<vehicle id="type1_70" type="type1" route="ne" depart="41.01481409016877" />
<vehicle id="type1_71" type="type1" route="es" depart="41.370160521192375" />
<vehicle id="type1_72" type="type1" route="nw" depart="41.801265148137595" />
<vehicle id="type1_73" type="type1" route="sw" depart="41.97942586904662" />
<vehicle id="type1_74" type="type1" route="es" depart="42.25278101781862" />
<vehicle id="type1_75" type="type1" route="wn" depart="42.658925799374266" />
<vehicle id="type1_76" type="type1" route="sn" depart="42.92127463054597" />
<vehicle id="type1_77" type="type1" route="we" depart="44.318604349836626" />
<vehicle id="type1_78" type="type1" route="se" depart="44.391982657542776" />
<vehicle id="type1_79" type="type1" route="es" depart="45.552107675103976" />
<vehicle id="type1_80" type="type1" route="es" depart="45.84336887952847" />
<vehicle id="type1_81" type="type1" route="se" depart="47.4552462146603" />
<vehicle id="type1_82" type="type1" route="ne" depart="47.47923698866793" />
<vehicle id="type1_83" type="type1" route="ew" depart="47.95357693959626" />
<vehicle id="type1_84" type="type1" route="sw" depart="48.525443146665275" />
<vehicle id="type1_85" type="type1" route="en" depart="48.80739352782662" />
<vehicle id="type1_86" type="type1" route="we" depart="48.82244948536306" />
<vehicle id="type1_87" type="type1" route="sw" depart="48.82271582442524" />
<vehicle id="type1_88" type="type1" route="es" depart="49.146008847605486" />
<vehicle id="type1_89" type="type1" route="ew" depart="51.45709877233132" />
<vehicle id="type1_90" type="type1" route="ns" depart="56.32009044633534" />
<vehicle id="type1_91" type="type1" route="ns" depart="57.81138815159879" />
<vehicle id="type1_92" type="type1" route="es" depart="58.213619975360224" />
<vehicle id="type1_93" type="type1" route="es" depart="61.22729937802444" />
<vehicle id="type1_94" type="type1" route="se" depart="61.32162087293023" />
<vehicle id="emv_5" type="rescue" route="ew" depart="62.78766753076633" />
<vehicle id="type1_95" type="type1" route="wn" depart="62.9779381009777" />
<vehicle id="type1_96" type="type1" route="nw" depart="63.08056097908242" />
<vehicle id="type1_97" type="type1" route="es" depart="63.77633992562293" />
<vehicle id="type1_98" type="type1" route="sn" depart="64.03722876911293" />
<vehicle id="type1_99" type="type1" route="sn" depart="64.19911059792818" />
<vehicle id="type1_100" type="type1" route="ew" depart="64.38444697974035" />
<vehicle id="type1_101" type="type1" route="ew" depart="66.12766148528532" />
<vehicle id="type1_102" type="type1" route="es" depart="67.67234916463313" />
<vehicle id="type1_103" type="type1" route="ns" depart="68.28497331939914" />
<vehicle id="type1_104" type="type1" route="nw" depart="68.76063585176726" />
<vehicle id="type1_105" type="type1" route="ws" depart="70.32502308011244" />
<vehicle id="type1_106" type="type1" route="ne" depart="70.77630942328233" />
<vehicle id="type1_107" type="type1" route="wn" depart="70.80875240737355" />
<vehicle id="type1_108" type="type1" route="es" depart="70.8830313309375" />
<vehicle id="type1_109" type="type1" route="nw" depart="71.3738749377734" />
<vehicle id="type1_110" type="type1" route="sn" depart="72.71012785386517" />
<vehicle id="type1_111" type="type1" route="ew" depart="73.42744990033779" />
<vehicle id="type1_112" type="type1" route="en" depart="73.43529065872073" />
<vehicle id="type1_113" type="type1" route="sw" depart="73.6457928709383" />
<vehicle id="type1_114" type="type1" route="sw" depart="73.92227596107637" />
<vehicle id="type1_115" type="type1" route="wn" depart="74.53487964416342" />
<vehicle id="emv_6" type="rescue" route="wn" depart="74.53926366057686" />
<vehicle id="type1_116" type="type1" route="ns" depart="74.64281071202957" />
<vehicle id="type1_117" type="type1" route="sw" depart="74.80575264379613" />
<vehicle id="type1_118" type="type1" route="ew" depart="75.8139623586678" />
<vehicle id="type1_119" type="type1" route="ew" depart="76.30916493441912" />
<vehicle id="type1_120" type="type1" route="sn" depart="76.82378895349282" />
<vehicle id="type1_121" type="type1" route="sw" depart="77.09701181086626" />
<vehicle id="type1_122" type="type1" route="sw" depart="78.22413275698564" />
<vehicle id="type1_123" type="type1" route="nw" depart="78.66116337249964" />
<vehicle id="type1_124" type="type1" route="ew" depart="78.70933964863296" />
<vehicle id="type1_125" type="type1" route="ns" depart="79.50899024044922" />
<vehicle id="type1_126" type="type1" route="we" depart="80.54159963378217" />
<vehicle id="type1_127" type="type1" route="ne" depart="82.08575041739766" />
<vehicle id="type1_128" type="type1" route="sn" depart="82.59836368575674" />
<vehicle id="type1_129" type="type1" route="sn" depart="82.68383642837446" />
<vehicle id="type1_130" type="type1" route="ew" depart="82.86697262746914" />
<vehicle id="type1_131" type="type1" route="nw" depart="83.27699049882722" />
<vehicle id="type1_132" type="type1" route="we" depart="84.55732478255212" />
<vehicle id="type1_133" type="type1" route="es" depart="84.73066198013156" />
<vehicle id="type1_134" type="type1" route="wn" depart="85.51385930086954" />
<vehicle id="type1_135" type="type1" route="ns" depart="85.81336014027768" />
<vehicle id="emv_7" type="rescue" route="ws" depart="87.69581395795406" />
<vehicle id="type1_136" type="type1" route="wn" depart="88.35297875160288" />
<vehicle id="type1_137" type="type1" route="we" depart="89.51629435532773" />
<vehicle id="type1_138" type="type1" route="we" depart="89.64373127901781" />
<vehicle id="type1_139" type="type1" route="we" depart="89.85078688965207" />
<vehicle id="type1_140" type="type1" route="ns" depart="90.76653977679429" />
<vehicle id="type1_141" type="type1" route="ws" depart="91.14750528451455" />
<vehicle id="type1_142" type="type1" route="sn" depart="91.95729037806237" />
<vehicle id="type1_143" type="type1" route="ns" depart="92.47165158162517" />
<vehicle id="type1_144" type="type1" route="sn" depart="93.70291483311459" />
<vehicle id="type1_145" type="type1" route="sn" depart="95.62342471836898" />
<vehicle id="type1_146" type="type1" route="ne" depart="95.94874192529433" />
<vehicle id="type1_147" type="type1" route="sn" depart="96.02788254299458" />
<vehicle id="type1_148" type="type1" route="wn" depart="96.1890576619665" />
<vehicle id="emv_8" type="rescue" route="ne" depart="96.59415417819513" />
<vehicle id="type1_149" type="type1" route="sn" depart="96.68907763275772" />
<vehicle id="type1_150" type="type1" route="we" depart="96.77458043716393" />
<vehicle id="type1_151" type="type1" route="ws" depart="97.83037944027183" />
<vehicle id="type1_152" type="type1" route="ew" depart="97.86243522570305" />
<vehicle id="type1_153" type="type1" route="es" depart="98.43191696241435" />
<vehicle id="type1_154" type="type1" route="wn" depart="98.5148573290025" />
<vehicle id="type1_155" type="type1" route="se" depart="99.01461958434997" />
<vehicle id="emv_9" type="rescue" route="ns" depart="99.72464311847575" />
<vehicle id="type1_156" type="type1" route="sn" depart="100.85222655019469" />
<vehicle id="type1_157" type="type1" route="sw" depart="101.49539036729384" />
<vehicle id="type1_158" type="type1" route="en" depart="101.5904442755416" />
<vehicle id="type1_159" type="type1" route="ne" depart="101.74267169532614" />
<vehicle id="type1_160" type="type1" route="en" depart="102.37942399117405" />
<vehicle id="type1_161" type="type1" route="ws" depart="102.74368019903153" />
<vehicle id="type1_162" type="type1" route="en" depart="103.22915811164344" />
<vehicle id="type1_163" type="type1" route="ne" depart="103.45230463606788" />
<vehicle id="type1_164" type="type1" route="ew" depart="103.5193486679823" />
<vehicle id="type1_165" type="type1" route="nw" depart="103.68582883375993" />
<vehicle id="type1_166" type="type1" route="ne" depart="104.76446451772358" />
<vehicle id="type1_167" type="type1" route="ne" depart="105.41644463949774" />
<vehicle id="type1_168" type="type1" route="nw" depart="105.445295102645" />
<vehicle id="type1_169" type="type1" route="se" depart="105.83739463997559" />
<vehicle id="type1_170" type="type1" route="sw" depart="105.86747732066596" />
<vehicle id="type1_171" type="type1" route="sn" depart="107.41279006148953" />
<vehicle id="type1_172" type="type1" route="we" depart="107.54104337519158" />
<vehicle id="type1_173" type="type1" route="es" depart="107.57610865443253" />
<vehicle id="type1_174" type="type1" route="sn" depart="107.5997281248069" />
<vehicle id="type1_175" type="type1" route="wn" depart="108.07610711950893" />
<vehicle id="type1_176" type="type1" route="sn" depart="108.32468298691312" />
<vehicle id="type1_177" type="type1" route="ws" depart="111.75701971914778" />
<vehicle id="type1_178" type="type1" route="en" depart="112.1209863887362" />
<vehicle id="type1_179" type="type1" route="we" depart="113.73946027122766" />
<vehicle id="type1_180" type="type1" route="nw" depart="114.03665456867017" />
<vehicle id="emv_10" type="rescue" route="es" depart="116.94829752257445" />
<vehicle id="type1_181" type="type1" route="ws" depart="118.15777809039595" />
<vehicle id="type1_182" type="type1" route="sn" depart="118.39050830659933" />
<vehicle id="type1_183" type="type1" route="sw" depart="118.90729761721592" />
<vehicle id="type1_184" type="type1" route="sw" depart="119.14828406204025" />
<vehicle id="type1_185" type="type1" route="nw" depart="119.82146458800581" />
<vehicle id="type1_186" type="type1" route="ws" depart="120.44088234825728" />
<vehicle id="type1_187" type="type1" route="ns" depart="120.66171477043831" />
<vehicle id="type1_188" type="type1" route="se" depart="121.75555527840389" />
<vehicle id="type1_189" type="type1" route="wn" depart="122.30032148872615" />
<vehicle id="type1_190" type="type1" route="en" depart="122.40943498802801" />
<vehicle id="type1_191" type="type1" route="ws" depart="122.46583018778256" />
<vehicle id="type1_192" type="type1" route="nw" depart="123.74533572976058" />
<vehicle id="type1_193" type="type1" route="ws" depart="124.87552339696265" />
<vehicle id="type1_194" type="type1" route="sn" depart="125.26489129815764" />
<vehicle id="type1_195" type="type1" route="wn" depart="125.5282168073452" />
<vehicle id="type1_196" type="type1" route="se" depart="126.52275647864211" />
<vehicle id="type1_197" type="type1" route="en" depart="128.1245374914363" />
<vehicle id="type1_198" type="type1" route="ns" depart="130.1361129601899" />
<vehicle id="type1_199" type="type1" route="nw" depart="131.5485646733028" />
<vehicle id="type1_200" type="type1" route="se" depart="132.75354671284506" />
<vehicle id="emv_11" type="rescue" route="en" depart="134.05224038216573" />
<vehicle id="type1_201" type="type1" route="es" depart="134.45761417215357" />
<vehicle id="type1_202" type="type1" route="se" depart="134.46443991379462" />
<vehicle id="type1_203" type="type1" route="ne" depart="136.0233413587892" />
<vehicle id="type1_204" type="type1" route="ew" depart="136.4416033714816" />
<vehicle id="emv_12" type="rescue" route="wn" depart="136.65199373627794" />
<vehicle id="type1_205" type="type1" route="sw" depart="137.03118322217466" />
<vehicle id="type1_206" type="type1" route="se" depart="137.37368754269554" />
<vehicle id="emv_13" type="rescue" route="en" depart="138.5395109888856" />
<vehicle id="type1_207" type="type1" route="we" depart="139.12066831697481" />
<vehicle id="type1_208" type="type1" route="ns" depart="139.83925414734222" />
<vehicle id="type1_209" type="type1" route="se" depart="140.95911734439397" />
<vehicle id="type1_210" type="type1" route="ws" depart="141.34068291602162" />
<vehicle id="type1_211" type="type1" route="se" depart="142.0578788836483" />
<vehicle id="emv_14" type="rescue" route="se" depart="142.65986612489903" />
<vehicle id="emv_15" type="rescue" route="ew" depart="142.78383805037998" />
<vehicle id="type1_212" type="type1" route="ew" depart="143.3097387133256" />
<vehicle id="type1_213" type="type1" route="we" depart="143.361116195059" />
<vehicle id="type1_214" type="type1" route="ne" depart="144.385021428167" />
<vehicle id="type1_215" type="type1" route="ws" depart="144.48580330674625" />
<vehicle id="type1_216" type="type1" route="nw" depart="144.85361720587517" />
<vehicle id="type1_217" type="type1" route="es" depart="145.2617813521756" />
<vehicle id="emv_16" type="rescue" route="es" depart="145.87910204381944" />
<vehicle id="type1_218" type="type1" route="sw" depart="146.64252634501838" />
<vehicle id="type1_219" type="type1" route="we" depart="146.6685035296283" />
<vehicle id="type1_220" type="type1" route="sw" depart="147.10090488614642" />
<vehicle id="type1_221" type="type1" route="ne" depart="147.48275736968975" />
<vehicle id="type1_222" type="type1" route="ns" depart="148.3399227443582" />
<vehicle id="emv_17" type="rescue" route="se" depart="150.97689805409874" />
<vehicle id="type1_223" type="type1" route="en" depart="152.53623758239218" />
<vehicle id="emv_18" type="rescue" route="se" depart="152.58961401658365" />
<vehicle id="type1_224" type="type1" route="en" depart="152.72379501579022" />
<vehicle id="type1_225" type="type1" route="se" depart="153.69044617896117" />
<vehicle id="type1_226" type="type1" route="se" depart="154.36697971848844" />
<vehicle id="type1_227" type="type1" route="sw" depart="155.48550378476133" />
<vehicle id="type1_228" type="type1" route="ne" depart="155.64673397198507" />
<vehicle id="type1_229" type="type1" route="we" depart="157.55375394748953" />
<vehicle id="type1_230" type="type1" route="ne" depart="157.95074163206573" />
<vehicle id="type1_231" type="type1" route="ne" depart="159.58240568249977" />
<vehicle id="type1_232" type="type1" route="we" depart="159.8495797143652" />
<vehicle id="type1_233" type="type1" route="ws" depart="160.19653110742766" />
<vehicle id="type1_234" type="type1" route="wn" depart="161.2339855319956" />
<vehicle id="type1_235" type="type1" route="en" depart="161.41207148437124" />
<vehicle id="type1_236" type="type1" route="sn" depart="162.17594362030405" />
<vehicle id="type1_237" type="type1" route="sw" depart="162.40302911974524" />
<vehicle id="emv_19" type="rescue" route="es" depart="163.30386208294135" />
<vehicle id="type1_238" type="type1" route="wn" depart="164.11258881851103" />
<vehicle id="type1_239" type="type1" route="ns" depart="165.02044405325535" />
<vehicle id="type1_240" type="type1" route="we" depart="166.456060938849" />
<vehicle id="type1_241" type="type1" route="we" depart="166.56225433581145" />
<vehicle id="type1_242" type="type1" route="ws" depart="166.75345904965943" />
<vehicle id="type1_243" type="type1" route="wn" depart="166.8724384467285" />
<vehicle id="type1_244" type="type1" route="we" depart="168.12872688738733" />
<vehicle id="type1_245" type="type1" route="se" depart="168.25254715928347" />
<vehicle id="type1_246" type="type1" route="en" depart="168.607057398082" />
<vehicle id="type1_247" type="type1" route="ns" depart="169.20787200439656" />
<vehicle id="type1_248" type="type1" route="nw" depart="170.06561096709655" />
<vehicle id="type1_249" type="type1" route="sn" depart="170.9214754613208" />
<vehicle id="type1_250" type="type1" route="sw" depart="172.03266768240314" />
<vehicle id="type1_251" type="type1" route="wn" depart="172.65984179783095" />
<vehicle id="emv_20" type="rescue" route="en" depart="173.0016593050199" />
<vehicle id="type1_252" type="type1" route="en" depart="173.1267121998287" />
<vehicle id="type1_253" type="type1" route="sw" depart="173.5536328704136" />
<vehicle id="type1_254" type="type1" route="sn" depart="173.85202631383612" />
<vehicle id="type1_255" type="type1" route="ns" depart="174.16065742305526" />
<vehicle id="type1_256" type="type1" route="sw" depart="175.549258629528" />
<vehicle id="type1_257" type="type1" route="ns" depart="176.0722167834394" />
<vehicle id="type1_258" type="type1" route="nw" depart="176.08579379004058" />
<vehicle id="type1_259" type="type1" route="en" depart="177.967186106906" />
<vehicle id="type1_260" type="type1" route="ew" depart="178.0380804985432" />
<vehicle id="type1_261" type="type1" route="nw" depart="179.57944680996448" />
<vehicle id="type1_262" type="type1" route="ne" depart="179.8258735920095" />
<vehicle id="type1_263" type="type1" route="se" depart="179.97119804817757" />
<vehicle id="type1_264" type="type1" route="sw" depart="182.4907612410821" />
<vehicle id="type1_265" type="type1" route="es" depart="183.08342890927585" />
<vehicle id="type1_266" type="type1" route="we" depart="183.91701704177692" />
<vehicle id="type1_267" type="type1" route="sn" depart="184.7433215694916" />
<vehicle id="type1_268" type="type1" route="wn" depart="184.7876313069887" />
<vehicle id="type1_269" type="type1" route="wn" depart="186.4980399984435" />
<vehicle id="type1_270" type="type1" route="se" depart="187.1598757374271" />
<vehicle id="emv_21" type="rescue" route="es" depart="187.4156957650185" />
<vehicle id="type1_271" type="type1" route="ns" depart="187.79385005598408" />
<vehicle id="type1_272" type="type1" route="ew" depart="188.19469700673167" />
<vehicle id="type1_273" type="type1" route="ns" depart="190.4387998482371" />
<vehicle id="type1_274" type="type1" route="we" depart="190.89059040765358" />
<vehicle id="type1_275" type="type1" route="nw" depart="190.96797833619647" />
<vehicle id="type1_276" type="type1" route="es" depart="191.11498178254425" />
<vehicle id="type1_277" type="type1" route="es" depart="191.25921644739483" />
<vehicle id="type1_278" type="type1" route="sn" depart="191.39181646475555" />
<vehicle id="type1_279" type="type1" route="ne" depart="193.4485691096754" />
<vehicle id="type1_280" type="type1" route="wn" depart="194.7364488819489" />
<vehicle id="type1_281" type="type1" route="sw" depart="195.5202493455642" />
<vehicle id="type1_282" type="type1" route="ne" depart="196.92295750359403" />
<vehicle id="type1_283" type="type1" route="se" depart="196.93375557192522" />
<vehicle id="type1_284" type="type1" route="sn" depart="198.03101414635057" />
<vehicle id="type1_285" type="type1" route="nw" depart="198.12251469014754" />
<vehicle id="type1_286" type="type1" route="ew" depart="198.4001376425758" />
<vehicle id="type1_287" type="type1" route="sn" depart="201.15384921233203" />
<vehicle id="type1_288" type="type1" route="sw" depart="201.99641073610297" />
<vehicle id="type1_289" type="type1" route="we" depart="203.2836982210816" />
<vehicle id="type1_290" type="type1" route="ws" depart="207.52000808421826" />
<vehicle id="type1_291" type="type1" route="ew" depart="208.01190802890036" />
<vehicle id="type1_292" type="type1" route="se" depart="208.65382382464213" />
<vehicle id="type1_293" type="type1" route="wn" depart="208.75093251844598" />
<vehicle id="type1_294" type="type1" route="se" depart="209.3744218903361" />
<vehicle id="type1_295" type="type1" route="es" depart="209.5134757783417" />
<vehicle id="emv_22" type="rescue" route="sw" depart="209.52191007297142" />
<vehicle id="type1_296" type="type1" route="en" depart="210.01725604377506" />
<vehicle id="type1_297" type="type1" route="sw" depart="210.65735616496733" />
<vehicle id="type1_298" type="type1" route="we" depart="210.90407905578027" />
<vehicle id="type1_299" type="type1" route="ne" depart="211.69922462927903" />
<vehicle id="type1_300" type="type1" route="ns" depart="212.31904762432723" />
<vehicle id="type1_301" type="type1" route="ew" depart="214.16278511527253" />
<vehicle id="type1_302" type="type1" route="en" depart="214.50637736875706" />
<vehicle id="type1_303" type="type1" route="wn" depart="215.87455161781736" />
<vehicle id="type1_304" type="type1" route="en" depart="216.09989452687458" />
<vehicle id="type1_305" type="type1" route="ne" depart="217.41278323791994" />
<vehicle id="type1_306" type="type1" route="sw" depart="217.86318724450126" />
<vehicle id="type1_307" type="type1" route="ns" depart="218.55886893560154" />
<vehicle id="type1_308" type="type1" route="se" depart="220.78165308741814" />
<vehicle id="type1_309" type="type1" route="en" depart="220.90244104489878" />
<vehicle id="emv_23" type="rescue" route="se" depart="222.95431896138976" />
<vehicle id="type1_310" type="type1" route="ns" depart="223.58043110250097" />
<vehicle id="type1_311" type="type1" route="ns" depart="223.83881007830658" />
<vehicle id="type1_312" type="type1" route="wn" depart="224.04159777095455" />
<vehicle id="type1_313" type="type1" route="wn" depart="225.00719263560322" />
<vehicle id="type1_314" type="type1" route="sn" depart="225.14473433602146" />
<vehicle id="type1_315" type="type1" route="nw" depart="225.96912112412022" />
<vehicle id="type1_316" type="type1" route="ne" depart="226.3882936749165" />
<vehicle id="type1_317" type="type1" route="ne" depart="227.7633471185595" />
<vehicle id="type1_318" type="type1" route="sw" depart="228.4158412001969" />
<vehicle id="type1_319" type="type1" route="ns" depart="228.5894980798993" />
<vehicle id="type1_320" type="type1" route="sn" depart="229.5188396818629" />
<vehicle id="type1_321" type="type1" route="ew" depart="229.53869597378403" />
<vehicle id="emv_24" type="rescue" route="ns" depart="229.73146628879962" />
<vehicle id="type1_322" type="type1" route="ne" depart="230.71771596514938" />
<vehicle id="type1_323" type="type1" route="ns" depart="235.83198017561205" />
<vehicle id="type1_324" type="type1" route="ns" depart="236.4825406875223" />
<vehicle id="type1_325" type="type1" route="se" depart="237.6965408992153" />
<vehicle id="type1_326" type="type1" route="nw" depart="237.86574529975346" />
<vehicle id="type1_327" type="type1" route="es" depart="240.0274185726222" />
<vehicle id="type1_328" type="type1" route="es" depart="240.56689640493627" />
<vehicle id="type1_329" type="type1" route="nw" depart="240.884316619937" />
<vehicle id="type1_330" type="type1" route="we" depart="242.01334587542692" />
<vehicle id="type1_331" type="type1" route="es" depart="242.63159396375713" />
<vehicle id="type1_332" type="type1" route="se" depart="242.6407408552287" />
<vehicle id="type1_333" type="type1" route="ws" depart="243.6417981438917" />
<vehicle id="type1_334" type="type1" route="ne" depart="244.40004686718066" />
<vehicle id="type1_335" type="type1" route="se" depart="244.71608474228722" />
<vehicle id="type1_336" type="type1" route="se" depart="245.12882090924776" />
<vehicle id="type1_337" type="type1" route="wn" depart="245.60686231233413" />
<vehicle id="type1_338" type="type1" route="nw" depart="245.62831700822557" />
<vehicle id="type1_339" type="type1" route="ns" depart="245.79799672475923" />
<vehicle id="type1_340" type="type1" route="ws" depart="245.9054256168454" />
<vehicle id="type1_341" type="type1" route="sn" depart="246.09718563038484" />
<vehicle id="type1_342" type="type1" route="ne" depart="247.63248756848796" />