<routes>
            <vType id="type1" accel="0.8" decel="4.5" sigma="0.5" length="5" maxSpeed="70"/>
            <vType id="rescue" vClass="emergency" speedFactor="1.5" guiShape="emergency">
                <param key="has.bluelight.device" value="true"/>
            </vType>
            <route id="ne" edges="ni eo"/>
            <route id="ns" edges="ni so"/>
            <route id="nw" edges="ni wo"/>
            <route id="en" edges="ei no"/>
            <route id="es" edges="ei so"/>
            <route id="ew" edges="ei wo"/>
            <route id="sn" edges="si no"/>
            <route id="se" edges="si eo"/>
            <route id="sw" edges="si wo"/>
            <route id="wn" edges="wi no"/>
            <route id="we" edges="wi eo"/>
            <route id="ws" edges="wi so"/>
        <vehicle id="type1_1" type="type1" route="wn" depart="0.817888057409415" />
<vehicle id="type1_2" type="type1" route="sn" depart="1.3258424694151218" />
<vehicle id="type1_3" type="type1" route="en" depart="1.775721037841816" />
<vehicle id="type1_4" type="type1" route="sn" depart="2.9414071761910394" />
<vehicle id="type1_5" type="type1" route="we" depart="4.481843080674676" />
<vehicle id="type1_6" type="type1" route="ne" depart="5.724253750372565" />
<vehicle id="type1_7" type="type1" route="ew" depart="9.341825251639673" />
<vehicle id="emv_1" type="rescue" route="ws" depart="9.401073915577657" />
<vehicle id="type1_8" type="type1" route="ne" depart="11.644436782923663" />
<vehicle id="type1_9" type="type1" route="nw" depart="13.216982591031528" />
<vehicle id="type1_10" type="type1" route="se" depart="13.724355291048228" />
<vehicle id="type1_11" type="type1" route="we" depart="16.69526736318354" />
<vehicle id="type1_12" type="type1" route="nw" depart="16.76212978982773" />
<vehicle id="type1_13" type="type1" route="we" depart="18.337367662259034" />
<vehicle id="type1_14" type="type1" route="sn" depart="19.19968889670186" />
<vehicle id="emv_2" type="rescue" route="en" depart="19.333013615202347" />
<vehicle id="type1_15" type="type1" route="wn" depart="19.677853923559777" />
<vehicle id="type1_16" type="type1" route="wn" depart="19.684464313451432" />
<vehicle id="type1_17" type="type1" route="nw" depart="20.948166476037457" />
<vehicle id="type1_18" type="type1" route="es" depart="21.695037634707763" />
<vehicle id="type1_19" type="type1" route="en" depart="21.89174759789251" />
<vehicle id="type1_20" type="type1" route="sw" depart="22.587173277119415" />
<vehicle id="type1_21" type="type1" route="sn" depart="25.446634633049666" />
<vehicle id="type1_22" type="type1" route="wn" depart="25.479619038908986" />
<vehicle id="type1_23" type="type1" route="sw" depart="27.53257089612137" />
<vehicle id="emv_3" type="rescue" route="en" depart="29.24773575510758" />
<vehicle id="type1_24" type="type1" route="en" depart="29.730639929566014" />
<vehicle id="type1_25" type="type1" route="sn" depart="30.722955410996658" />
<vehicle id="type1_26" type="type1" route="wn" depart="30.84242354792792" />
<vehicle id="type1_27" type="type1" route="sw" depart="31.03605989327027" />
<vehicle id="type1_28" type="type1" route="ns" depart="31.702757393161583" />
<vehicle id="type1_29" type="type1" route="wn" depart="31.709259583485505" />
<vehicle id="type1_30" type="type1" route="wn" depart="33.037998831805325" />
<vehicle id="type1_31" type="type1" route="ns" depart="33.31142113085864" />
<vehicle id="type1_32" type="type1" route="en" depart="35.85457422145454" />
<vehicle id="emv_4" type="rescue" route="se" depart="38.580733545131764" />
<vehicle id="type1_33" type="type1" route="sn" depart="40.340130326186625" />
<vehicle id="type1_34" type="type1" route="es" depart="41.68580295392738" />
<vehicle id="type1_35" type="type1" route="sw" depart="45.75986103549561" />
<vehicle id="type1_36" type="type1" route="ns" depart="47.31105575330818" />
<vehicle id="type1_37" type="type1" route="es" depart="48.54829463551673" />
<vehicle id="type1_38" type="type1" route="we" depart="48.59803392923334" />
<vehicle id="type1_39" type="type1" route="nw" depart="50.26117739303704" />
<vehicle id="type1_40" type="type1" route="sn" depart="50.997301644042665" />
<vehicle id="type1_41" type="type1" route="ew" depart="51.950232762109145" />
<vehicle id="type1_42" type="type1" route="ne" depart="52.24213818616071" />
<vehicle id="type1_43" type="type1" route="ne" depart="53.08770257255367" />
<vehicle id="type1_44" type="type1" route="ew" depart="53.459185545617736" />
<vehicle id="type1_45" type="type1" route="es" depart="54.86874488953975" />
<vehicle id="type1_46" type="type1" route="wn" depart="56.65385504056487" />
<vehicle id="type1_47" type="type1" route="sn" depart="57.7922745233804" />
<vehicle id="type1_48" type="type1" route="en" depart="60.65241113996854" />
<vehicle id="type1_49" type="type1" route="es" depart="61.435335604178896" />
<vehicle id="type1_50" type="type1" route="wn" depart="62.22270771550013" />
<vehicle id="type1_51" type="type1" route="nw" depart="63.126710632758744" />
<vehicle id="type1_52" type="type1" route="sn" depart="63.24780699011656" />
<vehicle id="type1_53" type="type1" route="nw" depart="63.644250677641324" />
<vehicle id="type1_54" type="type1" route="wn" depart="64.28933924005018" />
<vehicle id="type1_55" type="type1" route="se" depart="66.77152388099364" />
<vehicle id="type1_56" type="type1" route="nw" depart="67.45968360264771" />
<vehicle id="emv_5" type="rescue" route="ns" depart="67.55022218721133" />
<vehicle id="type1_57" type="type1" route="se" depart="68.80556789813588" />
<vehicle id="type1_58" type="type1" route="ne" depart="69.35844749790778" />
<vehicle id="type1_59" type="type1" route="ns" depart="69.83751338143594" />
<vehicle id="type1_60" type="type1" route="ns" depart="70.61090293927005" />
<vehicle id="type1_61" type="type1" route="wn" depart="71.48075855365823" />
<vehicle id="type1_62" type="type1" route="sn" depart="72.4916981109034" />
<vehicle id="type1_63" type="type1" route="se" depart="73.84603107782901" />
<vehicle id="type1_64" type="type1" route="sn" depart="73.86967243546856" />
<vehicle id="type1_65" type="type1" route="es" depart="74.6592650011707" />
<vehicle id="type1_66" type="type1" route="ws" depart="76.59159461773977" />
<vehicle id="type1_67" type="type1" route="ew" depart="77.42331062075723" />
<vehicle id="type1_68" type="type1" route="sw" depart="79.45113094132122" />
<vehicle id="type1_69" type="type1" route="en" depart="79.53504221606956" />
<vehicle id="type1_70" type="type1" route="ne" depart="81.50164578731747" />
<vehicle id="type1_71" type="type1" route="we" depart="83.45873741029135" />
<vehicle id="type1_72" type="type1" route="wn" depart="84.58999572735944" />
<vehicle id="type1_73" type="type1" route="sn" depart="84.7126768474727" />
<vehicle id="emv_6" type="rescue" route="ns" depart="86.05042831710988" />
<vehicle id="type1_74" type="type1" route="se" depart="86.72118260791831" />
<vehicle id="type1_75" type="type1" route="en" depart="94.58127781308535" />
<vehicle id="type1_76" type="type1" route="ns" depart="95.53732596385616" />
<vehicle id="type1_77" type="type1" route="sw" depart="95.93101591632953" />
<vehicle id="emv_7" type="rescue" route="ns" depart="98.38324150653361" />
<vehicle id="type1_78" type="type1" route="es" depart="99.59491117179736" />
<vehicle id="type1_79" type="type1" route="sn" depart="100.98286323562088" />
<vehicle id="type1_80" type="type1" route="wn" depart="101.04970780382952" />
<vehicle id="emv_8" type="rescue" route="en" depart="104.53468278995233" />
<vehicle id="type1_81" type="type1" route="nw" depart="106.20327034616263" />
<vehicle id="type1_82" type="type1" route="en" depart="107.60204512539778" />
<vehicle id="type1_83" type="type1" route="ns" depart="107.6735490242361" />
<vehicle id="type1_84" type="type1" route="es" depart="109.9762404035486" />
<vehicle id="type1_85" type="type1" route="sn" depart="111.12058473146006" />
<vehicle id="type1_86" type="type1" route="ws" depart="113.74494974808023" />
<vehicle id="type1_87" type="type1" route="ws" depart="114.3927492963825" />
<vehicle id="type1_88" type="type1" route="we" depart="115.38866542573837" />
<vehicle id="type1_89" type="type1" route="en" depart="116.57394206560964" />
<vehicle id="type1_90" type="type1" route="ew" depart="117.09756396597257" />
<vehicle id="type1_91" type="type1" route="we" depart="117.14763280389192" />
<vehicle id="type1_92" type="type1" route="se" depart="118.74932369663622" />
<vehicle id="type1_93" type="type1" route="se" depart="120.70138590100038" />
<vehicle id="type1_94" type="type1" route="we" depart="121.0177101219036" />
<vehicle id="type1_95" type="type1" route="se" depart="123.20750643891162" />
<vehicle id="type1_96" type="type1" route="ne" depart="125.45036306238663" />
<vehicle id="type1_97" type="type1" route="ew" depart="127.22531624777156" />
<vehicle id="type1_98" type="type1" route="en" depart="127.63121856688922" />
<vehicle id="type1_99" type="type1" route="es" depart="130.69150576033599" />
<vehicle id="type1_100" type="type1" route="es" depart="132.29071316927917" />
<vehicle id="type1_101" type="type1" route="sw" depart="132.32164756924922" />
<vehicle id="type1_102" type="type1" route="se" depart="133.22629956983621" />
<vehicle id="type1_103" type="type1" route="ew" depart="134.5664177964289" />
<vehicle id="type1_104" type="type1" route="es" depart="135.8361882312938" />
<vehicle id="type1_105" type="type1" route="sn" depart="135.97923655490538" />
<vehicle id="type1_106" type="type1" route="wn" depart="136.03120293938488" />
<vehicle id="type1_107" type="type1" route="ws" depart="136.9159149252223" />
<vehicle id="type1_108" type="type1" route="ew" depart="137.62902761874915" />
<vehicle id="type1_109" type="type1" route="se" depart="138.2024944673289" />
<vehicle id="emv_9" type="rescue" route="nw" depart="138.69999006000387" />
<vehicle id="type1_110" type="type1" route="se" depart="138.83871462570724" />
<vehicle id="type1_111" type="type1" route="ns" depart="140.31209425183164" />
<vehicle id="type1_112" type="type1" route="ws" depart="140.7750158129713" />
<vehicle id="type1_113" type="type1" route="ne" depart="141.40667536950235" />
<vehicle id="type1_114" type="type1" route="we" depart="142.75038316318197" />
<vehicle id="type1_115" type="type1" route="ws" depart="144.25402092804353" />
<vehicle id="type1_116" type="type1" route="ew" depart="149.18741947330525" />
<vehicle id="type1_117" type="type1" route="nw" depart="149.76559178488606" />
<vehicle id="type1_118" type="type1" route="es" depart="151.25415968790617" />
<vehicle id="type1_119" type="type1" route="ne" depart="151.26791079613037" />
<vehicle id="type1_120" type="type1" route="ws" depart="154.97728704494395" />
<vehicle id="type1_121" type="type1" route="se" depart="155.75401348077736" />
<vehicle id="emv_10" type="rescue" route="wn" depart="156.51989943699402" />
<vehicle id="type1_122" type="type1" route="wn" depart="156.5681639229404" />
<vehicle id="type1_123" type="type1" route="en" depart="157.62153496783105" />
<vehicle id="type1_124" type="type1" route="wn" depart="157.64393433561708" />
<vehicle id="type1_125" type="type1" route="wn" depart="158.01552982376063" />
<vehicle id="type1_126" type="type1" route="ew" depart="158.22833371614854" />
<vehicle id="type1_127" type="type1" route="we" depart="160.4600130737378" />
<vehicle id="type1_128" type="type1" route="ne" depart="162.67900119509648" />
<vehicle id="type1_129" type="type1" route="ew" depart="163.93267445903734" />
<vehicle id="type1_130" type="type1" route="se" depart="164.2400646625415" />
<vehicle id="type1_131" type="type1" route="we" depart="164.56392165811963" />
<vehicle id="type1_132" type="type1" route="nw" depart="164.81973220520385" />
<vehicle id="emv_11" type="rescue" route="ew" depart="166.14616117133363" />
<vehicle id="type1_133" type="type1" route="ne" depart="167.07903767556678" />
<vehicle id="type1_134" type="type1" route="sw" depart="168.68911247544858" />
<vehicle id="type1_135" type="type1" route="ew" depart="171.34697594585916" />
<vehicle id="type1_136" type="type1" route="sn" depart="171.5231653929936" />
<vehicle id="type1_137" type="type1" route="ew" depart="171.89751727994525" />
<vehicle id="type1_138" type="type1" route="sn" depart="173.06325346377554" />
<vehicle id="type1_139" type="type1" route="wn" depart="176.1399773161523" />
<vehicle id="emv_12" type="rescue" route="sn" depart="177.16472686718075" />
<vehicle id="type1_140" type="type1" route="nw" depart="177.6155031652399" />
<vehicle id="type1_141" type="type1" route="se" depart="177.71064046714338" />
<vehicle id="emv_13" type="rescue" route="ew" depart="178.55397504025564" />
<vehicle id="type1_142" type="type1" route="sw" depart="178.82025904179085" />
<vehicle id="type1_143" type="type1" route="en" depart="182.63768436326964" />
<vehicle id="type1_144" type="type1" route="we" depart="184.03171099941324" />
<vehicle id="type1_145" type="type1" route="nw" depart="187.06151839863355" />
<vehicle id="type1_146" type="type1" route="en" depart="189.50080501159476" />
<vehicle id="type1_147" type="type1" route="ew" depart="191.52702739056804" />
<vehicle id="type1_148" type="type1" route="ne" depart="193.05998791543314" />
<vehicle id="type1_149" type="type1" route="nw" depart="194.03064781657807" />
<vehicle id="type1_150" type="type1" route="en" depart="194.7672848821492" />
<vehicle id="type1_151" type="type1" route="nw" depart="197.59435803543025" />
<vehicle id="type1_152" type="type1" route="wn" depart="198.54160528417782" />
<vehicle id="type1_153" type="type1" route="nw" depart="199.94918130679562" />
<vehicle id="type1_154" type="type1" route="ne" depart="202.02906709897465" />
<vehicle id="type1_155" type="type1" route="se" depart="203.65300090732367" />
<vehicle id="type1_156" type="type1" route="en" depart="209.25793363286215" />
<vehicle id="type1_157" type="type1" route="nw" depart="209.28115924144396" />
<vehicle id="type1_158" type="type1" route="sn" depart="209.5525909214843" />
<vehicle id="type1_159" type="type1" route="ew" depart="210.74873651821855" />
<vehicle id="type1_160" type="type1" route="nw" depart="211.32989975910564" />
<vehicle id="type1_161" type="type1" route="nw" depart="214.71641493984055" />
<vehicle id="type1_162" type="type1" route="se" depart="215.37100527468743" />
<vehicle id="type1_163" type="type1" route="we" depart="215.526441133716" />
<vehicle id="emv_14" type="rescue" route="se" depart="218.19941196018306" />
<vehicle id="emv_15" type="rescue" route="se" depart="219.37919858849708" />
<vehicle id="type1_164" type="type1" route="ns" depart="220.97242951666396" />
<vehicle id="type1_165" type="type1" route="se" depart="221.05630789709667" />
<vehicle id="type1_166" type="type1" route="es" depart="222.0244405860055" />
<vehicle id="type1_167" type="type1" route="sw" depart="222.59638063271993" />
<vehicle id="type1_168" type="type1" route="ns" depart="223.2038759520988" />
<vehicle id="type1_169" type="type1" route="sw" depart="226.33111258405265" />
<vehicle id="type1_170" type="type1" route="wn" depart="227.28148149675553" />
<vehicle id="type1_171" type="type1" route="es" depart="227.69309565316806" />
<vehicle id="emv_16" type="rescue" route="nw" depart="229.12702649342782" />
<vehicle id="type1_172" type="type1" route="se" depart="232.7132801311434" />
<vehicle id="type1_173" type="type1" route="ns" depart="232.81689997122746" />
<vehicle id="type1_174" type="type1" route="sn" depart="232.99393046875448" />
<vehicle id="type1_175" type="type1" route="se" depart="233.73936306942582" />
<vehicle id="type1_176" type="type1" route="es" depart="234.50774879866125" />
<vehicle id="type1_177" type="type1" route="en" depart="234.7586238367967" />
<vehicle id="type1_178" type="type1" route="sw" depart="235.43806306579435" />
<vehicle id="type1_179" type="type1" route="ns" depart="235.71894123916084" />
<vehicle id="type1_180" type="type1" route="ne" depart="235.9532004773946" />
<vehicle id="type1_181" type="type1" route="se" depart="236.82823489073675" />
<vehicle id="type1_182" type="type1" route="nw" depart="237.1261237724372" />
<vehicle id="type1_183" type="type1" route="ew" depart="237.50921411042967" />
<vehicle id="emv_17" type="rescue" route="sn" depart="237.87872477846233" />
<vehicle id="type1_184" type="type1" route="nw" depart="238.13107560367354" />
<vehicle id="type1_185" type="type1" route="nw" depart="238.30529782853733" />
<vehicle id="type1_186" type="type1" route="en" depart="238.57019723669472" />
<vehicle id="type1_187" type="type1" route="en" depart="239.12025841974958" />
<vehicle id="type1_188" type="type1" route="sw" depart="239.19502131318444" />
<vehicle id="type1_189" type="type1" route="se" depart="240.6716632310379" />
<vehicle id="type1_190" type="type1" route="ne" depart="242.95345387318355" />
<vehicle id="type1_191" type="type1" route="ns" depart="243.93471489673604" />
<vehicle id="type1_192" type="type1" route="ne" depart="244.49823189857833" />
<vehicle id="type1_193" type="type1" route="nw" depart="246.48056621030534" />
<vehicle id="type1_194" type="type1" route="se" depart="246.84346949730678" />
<vehicle id="type1_195" type="type1" route="we" depart="247.69278240232808" />
<vehicle id="type1_196" type="type1" route="we" depart="248.45426528844393" />
<vehicle id="type1_197" type="type1" route="se" depart="250.31627510195915" />
<vehicle id="type1_198" type="type1" route="sw" depart="251.9113480291477" />
<vehicle id="type1_199" type="type1" route="ws" depart="255.52280421694684" />
<vehicle id="type1_200" type="type1" route="sn" depart="255.816081925802" />
<vehicle id="type1_201" type="type1" route="nw" depart="259.00274321469203" />
<vehicle id="type1_202" type="type1" route="we" depart="262.42424072408545" />
<vehicle id="type1_203" type="type1" route="ws" depart="263.961673138881" />
<vehicle id="type1_204" type="type1" route="we" depart="266.40690467190035" />
<vehicle id="type1_205" type="type1" route="es" depart="266.828229238994" />
<vehicle id="type1_206" type="type1" route="ns" depart="268.6260892155007" />
<vehicle id="type1_207" type="type1" route="nw" depart="269.50640711120946" />
<vehicle id="type1_208" type="type1" route="sw" depart="269.78013685834947" />
<vehicle id="type1_209" type="type1" route="ns" depart="272.217984894381" />
<vehicle id="type1_210" type="type1" route="es" depart="273.92318885734534" />
<vehicle id="type1_211" type="type1" route="ew" depart="274.1834653179165" />
<vehicle id="type1_212" type="type1" route="wn" depart="274.2366848113515" />
<vehicle id="type1_213" type="type1" route="sw" depart="274.7909877438423" />
<vehicle id="type1_214" type="type1" route="sw" depart="276.4899624728296" />
<vehicle id="type1_215" type="type1" route="ne" depart="276.55336014406083" />
<vehicle id="type1_216" type="type1" route="wn" depart="277.25105034149203" />
<vehicle id="type1_217" type="type1" route="en" depart="279.28277698989973" />
<vehicle id="type1_218" type="type1" route="en" depart="286.59047655387707" />
<vehicle id="type1_219" type="type1" route="ws" depart="286.9981277146071" />
<vehicle id="type1_220" type="type1" route="nw" depart="287.5249306734434" />
<vehicle id="type1_221" type="type1" route="ew" depart="289.2333420394938" />
<vehicle id="type1_222" type="type1" route="ws" depart="291.4840582192012" />
<vehicle id="type1_223" type="type1" route="es" depart="291.59201973958125" />
<vehicle id="type1_224" type="type1" route="sn" depart="292.2237776373811" />
<vehicle id="type1_225" type="type1" route="we" depart="292.34055898240945" />
<vehicle id="type1_226" type="type1" route="se" depart="294.1596387215506" />
<vehicle id="type1_227" type="type1" route="sn" depart="295.4301604014799" />
<vehicle id="type1_228" type="type1" route="ws" depart="296.9930594759019" />
<vehicle id="type1_229" type="type1" route="nw" depart="297.34089106738367" />
<vehicle id="type1_230" type="type1" route="we" depart="300.9210358824756" />
<vehicle id="type1_231" type="type1" route="ne" depart="302.446023180728" />
<vehicle id="type1_232" type="type1" route="se" depart="308.0658561855129" />
<vehicle id="type1_233" type="type1" route="ws" depart="309.3663359871561" />
<vehicle id="type1_234" type="type1" route="en" depart="311.8271984369586" />
<vehicle id="type1_235" type="type1" route="ew" depart="311.9093656029996" />
<vehicle id="type1_236" type="type1" route="wn" depart="311.9190005354767" />
<vehicle id="type1_237" type="type1" route="sw" depart="312.04881070902763" />
<vehicle id="emv_18" type="rescue" route="we" depart="315.0586172276293" />
<vehicle id="type1_238" type="type1" route="ws" depart="315.6072144724092" />
<vehicle id="type1_239" type="type1" route="nw" depart="316.9580920953958" />
<vehicle id="type1_240" type="type1" route="ne" depart="317.56918921330436" />
<vehicle id="type1_241" type="type1" route="sw" depart="318.85437399146684" />
<vehicle id="type1_242" type="type1" route="se" depart="320.47300083282846" />
<vehicle id="type1_243" type="type1" route="ns" depart="321.76084591016377" />
<vehicle id="type1_244" type="type1" route="ws" depart="323.67776707659004" />
<vehicle id="emv_19" type="rescue" route="ne" depart="325.9747194438712" />
<vehicle id="type1_245" type="type1" route="ew" depart="328.92360516241007" />
<vehicle id="type1_246" type="type1" route="we" depart="329.49648946107044" />
<vehicle id="type1_247" type="type1" route="wn" depart="330.0876331623355" />
<vehicle id="type1_248" type="type1" route="ws" depart="335.1520878109589" />
<vehicle id="type1_249" type="type1" route="ns" depart="337.7629802872038" />
<vehicle id="type1_250" type="type1" route="ew" depart="337.9286129202857" />
<vehicle id="type1_251" type="type1" route="se" depart="337.9651667129627" />
<vehicle id="type1_252" type="type1" route="ws" depart="338.9825327728803" />
<vehicle id="type1_253" type="type1" route="we" depart="339.94133705434405" />
<vehicle id="type1_254" type="type1" route="ws" depart="340.2308507178679" />
<vehicle id="emv_20" type="rescue" route="we" depart="342.5728595702026" />
<vehicle id="type1_255" type="type1" route="en" depart="343.42255232043135" />
<vehicle id="type1_256" type="type1" route="se" depart="343.5398698722509" />
<vehicle id="type1_257" type="type1" route="sw" depart="344.29026815395173" />
<vehicle id="type1_258" type="type1" route="we" depart="345.56837063668485" />
<vehicle id="type1_259" type="type1" route="we" depart="347.12285328382785" />
<vehicle id="emv_21" type="rescue" route="en" depart="348.9694478090962" />
<vehicle id="type1_260" type="type1" route="sw" depart="349.9008527256829" />
<vehicle id="type1_261" type="type1" route="nw" depart="352.78731121530734" />
<vehicle id="type1_262" type="type1" route="wn" depart="353.09978003891086" />
<vehicle id="type1_263" type="type1" route="ns" depart="354.35255492860455" />
<vehicle id="type1_264" type="type1" route="sn" depart="356.8749475778378" />
<vehicle id="type1_265" type="type1" route="en" depart="357.10998239500253" />
<vehicle id="type1_266" type="type1" route="sn" depart="357.9197681110169" />
<vehicle id="type1_267" type="type1" route="nw" depart="360.81088470715554" />
<vehicle id="type1_268" type="type1" route="we" depart="361.40958489632317" />
<vehicle id="type1_269" type="type1" route="ew" depart="361.43192954385455" />
<vehicle id="type1_270" type="type1" route="es" depart="368.971339327874" />
<vehicle id="type1_271" type="type1" route="sn" depart="371.4402131423083" />
<vehicle id="type1_272" type="type1" route="ew" depart="371.7336899324461" />
<vehicle id="type1_273" type="type1" route="we" depart="372.42008409539875" />
<vehicle id="type1_274" type="type1" route="ws" depart="376.0533809726697" />
<vehicle id="type1_275" type="type1" route="ne" depart="376.5385842520164" />
<vehicle id="type1_276" type="type1" route="es" depart="377.9453547408599" />
<vehicle id="type1_277" type="type1" route="ns" depart="379.0097115827892" />
<vehicle id="type1_278" type="type1" route="se" depart="380.44647245575834" />
<vehicle id="type1_279" type="type1" route="ns" depart="380.50819850683087" />
</routes>