<routes>
            <vType id="type1" accel="0.8" decel="4.5" sigma="0.5" length="5" maxSpeed="70"/>
            <vType id="rescue" vClass="emergency" speedFactor="1.5" guiShape="emergency">
                <param key="has.bluelight.device" value="true"/>
            </vType>
            <route id="ne" edges="ni eo"/>
            <route id="ns" edges="ni so"/>
            <route id="nw" edges="ni wo"/>
            <route id="en" edges="ei no"/>
            <route id="es" edges="ei so"/>
            <route id="ew" edges="ei wo"/>
            <route id="sn" edges="si no"/>
            <route id="se" edges="si eo"/>
            <route id="sw" edges="si wo"/>
            <route id="wn" edges="wi no"/>
            <route id="we" edges="wi eo"/>
            <route id="ws" edges="wi so"/>
        <vehicle id="type1_1" type="type1" route="wn" depart="0.6139057908091973" />
<vehicle id="type1_2" type="type1" route="sn" depart="3.8132507428464697" />
<vehicle id="type1_3" type="type1" route="en" depart="4.246527795352299" />
<vehicle id="type1_4" type="type1" route="sn" depart="5.042140576714813" />
<vehicle id="type1_5" type="type1" route="we" depart="6.5597352035071905" />
<vehicle id="type1_6" type="type1" route="ne" depart="7.199425578253485" />
<vehicle id="type1_7" type="type1" route="ew" depart="10.743641517942617" />
<vehicle id="emv_1" type="rescue" route="ws" depart="11.772164821945735" />
<vehicle id="type1_8" type="type1" route="ne" depart="12.050154782973896" />
<vehicle id="type1_9" type="type1" route="nw" depart="12.46663535193872" />
<vehicle id="type1_10" type="type1" route="se" depart="12.653794333057233" />
<vehicle id="type1_11" type="type1" route="we" depart="12.931360778814964" />
<vehicle id="type1_12" type="type1" route="nw" depart="13.898875389654286" />
<vehicle id="type1_13" type="type1" route="we" depart="14.713583361183721" />
<vehicle id="type1_14" type="type1" route="sn" depart="15.54736539650441" />
<vehicle id="type1_15" type="type1" route="en" depart="17.390984726270567" />
<vehicle id="type1_16" type="type1" route="wn" depart="17.62876877294957" />
<vehicle id="type1_17" type="type1" route="wn" depart="18.590816657245874" />
<vehicle id="type1_18" type="type1" route="nw" depart="19.880790461964704" />
<vehicle id="type1_19" type="type1" route="es" depart="20.27172631898885" />
<vehicle id="type1_20" type="type1" route="en" depart="22.924447398261172" />
<vehicle id="type1_21" type="type1" route="sw" depart="23.431651853092294" />
<vehicle id="type1_22" type="type1" route="sn" depart="23.787386962240646" />
<vehicle id="type1_23" type="type1" route="wn" depart="25.848963326512298" />
<vehicle id="type1_24" type="type1" route="sw" depart="26.055059889760184" />
<vehicle id="type1_25" type="type1" route="en" depart="26.06442772315919" />
<vehicle id="type1_26" type="type1" route="en" depart="26.068944203408073" />
<vehicle id="type1_27" type="type1" route="sn" depart="26.396128280947256" />
<vehicle id="type1_28" type="type1" route="wn" depart="29.829316557503308" />
<vehicle id="type1_29" type="type1" route="sw" depart="30.06722920854054" />
<vehicle id="type1_30" type="type1" route="ns" depart="30.917698437621294" />
<vehicle id="type1_31" type="type1" route="wn" depart="31.574744259586538" />
<vehicle id="type1_32" type="type1" route="wn" depart="31.877191010307016" />
<vehicle id="type1_33" type="type1" route="ns" depart="33.01431578781388" />
<vehicle id="type1_34" type="type1" route="en" depart="33.038937255360494" />
<vehicle id="type1_35" type="type1" route="se" depart="33.95090617825521" />
<vehicle id="type1_36" type="type1" route="sn" depart="34.992159321936846" />
<vehicle id="type1_37" type="type1" route="es" depart="38.17991360815158" />
<vehicle id="type1_38" type="type1" route="sw" depart="38.75517978845727" />
<vehicle id="type1_39" type="type1" route="ns" depart="38.84222845389437" />
<vehicle id="type1_40" type="type1" route="es" depart="40.62147682785552" />
<vehicle id="type1_41" type="type1" route="we" depart="40.64534827938195" />
<vehicle id="type1_42" type="type1" route="nw" depart="40.788751050945315" />
<vehicle id="type1_43" type="type1" route="sn" depart="41.21136950423097" />
<vehicle id="type1_44" type="type1" route="ew" depart="42.520647282069305" />
<vehicle id="type1_45" type="type1" route="ne" depart="44.83974587531878" />
<vehicle id="type1_46" type="type1" route="ne" depart="44.96543722955428" />
<vehicle id="type1_47" type="type1" route="ew" depart="45.28115614100098" />
<vehicle id="type1_48" type="type1" route="es" depart="45.33898753520658" />
<vehicle id="type1_49" type="type1" route="wn" depart="48.23708544611737" />
<vehicle id="type1_50" type="type1" route="sn" depart="48.800723638055196" />
<vehicle id="type1_51" type="type1" route="en" depart="50.62814452711546" />
<vehicle id="type1_52" type="type1" route="es" depart="51.608688584627906" />
<vehicle id="type1_53" type="type1" route="wn" depart="53.743200358780115" />
<vehicle id="type1_54" type="type1" route="nw" depart="54.19032108510546" />
<vehicle id="type1_55" type="type1" route="sn" depart="57.04594981012287" />
<vehicle id="type1_56" type="type1" route="nw" depart="57.147147904928204" />
<vehicle id="type1_57" type="type1" route="wn" depart="57.78323032942297" />
<vehicle id="type1_58" type="type1" route="se" depart="58.51766191656033" />
<vehicle id="type1_59" type="type1" route="nw" depart="59.31188740567386" />
<vehicle id="type1_60" type="type1" route="ns" depart="61.02635389750856" />
<vehicle id="type1_61" type="type1" route="se" depart="61.919698430450026" />
<vehicle id="type1_62" type="type1" route="ne" depart="63.102780715829354" />
<vehicle id="type1_63" type="type1" route="ns" depart="63.307855072247314" />
<vehicle id="type1_64" type="type1" route="ns" depart="63.31371981043798" />
<vehicle id="type1_65" type="type1" route="wn" depart="64.86193550534693" />
<vehicle id="type1_66" type="type1" route="sn" depart="65.89998449300553" />
<vehicle id="type1_67" type="type1" route="se" depart="66.54848009444804" />
<vehicle id="type1_68" type="type1" route="sn" depart="69.06311755178761" />
<vehicle id="type1_69" type="type1" route="es" depart="69.78214832602728" />
<vehicle id="type1_70" type="type1" route="ws" depart="71.16050153186876" />
<vehicle id="type1_71" type="type1" route="ew" depart="71.9265825771441" />
<vehicle id="type1_72" type="type1" route="sw" depart="74.07005209003417" />
<vehicle id="type1_73" type="type1" route="en" depart="75.11861721662885" />
<vehicle id="type1_74" type="type1" route="ne" depart="79.39432971117871" />
<vehicle id="type1_75" type="type1" route="we" depart="82.51138891388075" />
<vehicle id="type1_76" type="type1" route="wn" depart="83.23280279536382" />
<vehicle id="type1_77" type="type1" route="sn" depart="84.05212162038904" />
<vehicle id="type1_78" type="type1" route="ns" depart="85.95325790014937" />
<vehicle id="type1_79" type="type1" route="se" depart="89.11061579427506" />
<vehicle id="type1_80" type="type1" route="en" depart="92.75329549958128" />
<vehicle id="type1_81" type="type1" route="ns" depart="93.22894672914485" />
<vehicle id="type1_82" type="type1" route="sw" depart="94.56039783227843" />
<vehicle id="emv_2" type="rescue" route="ns" depart="95.61997407932888" />
<vehicle id="type1_83" type="type1" route="es" depart="95.85631930504144" />
<vehicle id="type1_84" type="type1" route="sn" depart="95.87904195236791" />
<vehicle id="type1_85" type="type1" route="wn" depart="96.14137402772629" />
<vehicle id="emv_3" type="rescue" route="en" depart="98.93414380915485" />
<vehicle id="type1_86" type="type1" route="nw" depart="100.92803722092945" />
<vehicle id="type1_87" type="type1" route="en" depart="101.3396163506015" />
<vehicle id="type1_88" type="type1" route="ns" depart="101.7859259803876" />
<vehicle id="type1_89" type="type1" route="es" depart="104.52490645410406" />
<vehicle id="type1_90" type="type1" route="sn" depart="108.49642851760225" />
<vehicle id="type1_91" type="type1" route="ws" depart="108.69249530020731" />
<vehicle id="type1_92" type="type1" route="ws" depart="109.21020595666195" />
<vehicle id="type1_93" type="type1" route="we" depart="110.6626831626657" />
<vehicle id="type1_94" type="type1" route="en" depart="111.56610692151368" />
<vehicle id="type1_95" type="type1" route="ew" depart="111.91828814283865" />
<vehicle id="type1_96" type="type1" route="we" depart="112.5377405674324" />
<vehicle id="type1_97" type="type1" route="se" depart="114.57664360016126" />
<vehicle id="type1_98" type="type1" route="se" depart="117.5767133259777" />
<vehicle id="type1_99" type="type1" route="we" depart="118.6437951033651" />
<vehicle id="type1_100" type="type1" route="se" depart="119.78040949728644" />
<vehicle id="type1_101" type="type1" route="ne" depart="119.97277713945324" />
<vehicle id="type1_102" type="type1" route="ew" depart="122.18434094663382" />
<vehicle id="type1_103" type="type1" route="en" depart="125.42953626033524" />
<vehicle id="type1_104" type="type1" route="es" depart="127.27976899388877" />
<vehicle id="type1_105" type="type1" route="es" depart="127.72094394179797" />
<vehicle id="type1_106" type="type1" route="sw" depart="129.21619600246558" />
<vehicle id="type1_107" type="type1" route="se" depart="131.728158380313" />
<vehicle id="type1_108" type="type1" route="ew" depart="132.01420443185856" />
<vehicle id="type1_109" type="type1" route="es" depart="134.91974706757972" />
<vehicle id="type1_110" type="type1" route="sn" depart="137.5219378758991" />
<vehicle id="type1_111" type="type1" route="wn" depart="138.15743388534773" />
<vehicle id="type1_112" type="type1" route="ws" depart="138.52397052642343" />
<vehicle id="type1_113" type="type1" route="ew" depart="138.67617973857847" />
<vehicle id="type1_114" type="type1" route="se" depart="142.89791364166064" />
<vehicle id="type1_115" type="type1" route="nw" depart="143.02474088003342" />
<vehicle id="type1_116" type="type1" route="se" depart="143.49177868990782" />
<vehicle id="type1_117" type="type1" route="ns" depart="146.79468865269362" />
<vehicle id="type1_118" type="type1" route="ws" depart="149.14561562798383" />
<vehicle id="type1_119" type="type1" route="ne" depart="150.04806787798043" />
<vehicle id="type1_120" type="type1" route="we" depart="152.21346998734523" />
<vehicle id="type1_121" type="type1" route="ws" depart="152.72375453762962" />
<vehicle id="type1_122" type="type1" route="ew" depart="155.24032848873588" />
<vehicle id="type1_123" type="type1" route="nw" depart="155.30556362943028" />
<vehicle id="type1_124" type="type1" route="es" depart="156.00269770406416" />
<vehicle id="type1_125" type="type1" route="ne" depart="157.57447966061142" />
<vehicle id="type1_126" type="type1" route="ws" depart="158.3268239922784" />
<vehicle id="type1_127" type="type1" route="se" depart="158.35084180523242" />
<vehicle id="emv_4" type="rescue" route="wn" depart="158.7283763908895" />
<vehicle id="type1_128" type="type1" route="wn" depart="162.7302282120597" />
<vehicle id="type1_129" type="type1" route="en" depart="163.9232826891992" />
<vehicle id="type1_130" type="type1" route="wn" depart="164.3251892058597" />
<vehicle id="type1_131" type="type1" route="wn" depart="165.24636817958427" />
<vehicle id="type1_132" type="type1" route="ew" depart="165.3042916796633" />
<vehicle id="type1_133" type="type1" route="we" depart="165.96421491260048" />
<vehicle id="type1_134" type="type1" route="ne" depart="166.63901948079112" />
<vehicle id="type1_135" type="type1" route="ew" depart="167.939496140089" />
<vehicle id="type1_136" type="type1" route="se" depart="170.1202617416254" />
<vehicle id="type1_137" type="type1" route="we" depart="170.29819844017925" />
<vehicle id="type1_138" type="type1" route="nw" depart="170.43255961496047" />
<vehicle id="emv_5" type="rescue" route="ew" depart="171.11929865301897" />
<vehicle id="type1_139" type="type1" route="ne" depart="175.62003576587813" />
<vehicle id="type1_140" type="type1" route="sw" depart="176.81656145732615" />
<vehicle id="type1_141" type="type1" route="ew" depart="177.76363950631685" />
<vehicle id="type1_142" type="type1" route="sn" depart="177.97622564161313" />
<vehicle id="type1_143" type="type1" route="ew" depart="179.83872458622753" />
<vehicle id="type1_144" type="type1" route="sn" depart="180.53724678771988" />
<vehicle id="type1_145" type="type1" route="wn" depart="181.29706187242778" />
<vehicle id="emv_6" type="rescue" route="sn" depart="182.92382582056794" />
<vehicle id="type1_146" type="type1" route="nw" depart="185.4165293283355" />
<vehicle id="type1_147" type="type1" route="se" depart="186.243869469664" />
<vehicle id="type1_148" type="type1" route="ew" depart="187.37872615990386" />
<vehicle id="type1_149" type="type1" route="sw" depart="187.47644741995003" />
<vehicle id="type1_150" type="type1" route="en" depart="187.6960410112795" />
<vehicle id="type1_151" type="type1" route="we" depart="188.15225460712958" />
<vehicle id="type1_152" type="type1" route="nw" depart="188.2662944516668" />
<vehicle id="type1_153" type="type1" route="en" depart="189.13631096133858" />
<vehicle id="type1_154" type="type1" route="ew" depart="190.45306902756016" />
<vehicle id="type1_155" type="type1" route="ne" depart="194.57927400029354" />
<vehicle id="type1_156" type="type1" route="nw" depart="197.49653711236363" />
<vehicle id="type1_157" type="type1" route="en" depart="197.87391603885297" />
<vehicle id="type1_158" type="type1" route="nw" depart="202.05834900356376" />
<vehicle id="type1_159" type="type1" route="wn" depart="202.62945173837227" />
<vehicle id="type1_160" type="type1" route="nw" depart="206.47541565784852" />
<vehicle id="type1_161" type="type1" route="ne" depart="208.40395647919524" />
<vehicle id="type1_162" type="type1" route="se" depart="209.3531490430647" />
<vehicle id="type1_163" type="type1" route="en" depart="209.75328113687266" />
<vehicle id="type1_164" type="type1" route="nw" depart="210.61952819087696" />
<vehicle id="type1_165" type="type1" route="sn" depart="213.42734687407298" />
<vehicle id="type1_166" type="type1" route="ew" depart="215.17333229831368" />
<vehicle id="type1_167" type="type1" route="nw" depart="216.90402332303805" />
<vehicle id="type1_168" type="type1" route="nw" depart="217.11754429957472" />
<vehicle id="type1_169" type="type1" route="se" depart="217.6847520212358" />
<vehicle id="type1_170" type="type1" route="we" depart="218.64491795275492" />
<vehicle id="type1_171" type="type1" route="se" depart="219.30426602746164" />
<vehicle id="type1_172" type="type1" route="se" depart="220.5724747059172" />
<vehicle id="type1_173" type="type1" route="ns" depart="221.5652644492376" />
<vehicle id="type1_174" type="type1" route="se" depart="224.82737431184447" />
<vehicle id="type1_175" type="type1" route="es" depart="225.08552991167923" />
<vehicle id="type1_176" type="type1" route="sw" depart="226.43675262559466" />
<vehicle id="type1_177" type="type1" route="ns" depart="227.38004126736834" />
<vehicle id="type1_178" type="type1" route="sw" depart="227.87065060812805" />
<vehicle id="type1_179" type="type1" route="wn" depart="228.3939252419497" />
<vehicle id="type1_180" type="type1" route="es" depart="228.73196263489118" />
<vehicle id="type1_181" type="type1" route="nw" depart="229.8356667357855" />
<vehicle id="type1_182" type="type1" route="se" depart="232.51476823911082" />
<vehicle id="type1_183" type="type1" route="ns" depart="233.2299725248288" />
<vehicle id="type1_184" type="type1" route="sn" depart="236.19470358257908" />
<vehicle id="type1_185" type="type1" route="se" depart="236.80831234915462" />
<vehicle id="type1_186" type="type1" route="es" depart="238.99488077744522" />
<vehicle id="type1_187" type="type1" route="en" depart="239.55664032079798" />
<vehicle id="type1_188" type="type1" route="sw" depart="240.81925500965843" />
<vehicle id="type1_189" type="type1" route="ns" depart="242.55752625488915" />
<vehicle id="type1_190" type="type1" route="ne" depart="244.89218312844233" />
<vehicle id="type1_191" type="type1" route="se" depart="246.58691466315517" />
<vehicle id="type1_192" type="type1" route="nw" depart="247.08751795967027" />
<vehicle id="type1_193" type="type1" route="ew" depart="248.42834755756613" />
<vehicle id="emv_7" type="rescue" route="sn" depart="250.82081071322426" />
<vehicle id="type1_194" type="type1" route="nw" depart="252.74534019744658" />
<vehicle id="type1_195" type="type1" route="nw" depart="253.07869906409869" />
<vehicle id="type1_196" type="type1" route="en" depart="255.59804475526485" />
<vehicle id="type1_197" type="type1" route="en" depart="255.79197523324495" />
<vehicle id="type1_198" type="type1" route="sw" depart="256.9028368221092" />
<vehicle id="type1_199" type="type1" route="se" depart="257.3550760524229" />
<vehicle id="type1_200" type="type1" route="ne" depart="259.62068016188294" />
<vehicle id="type1_201" type="type1" route="ns" depart="259.7571667632062" />
<vehicle id="type1_202" type="type1" route="ne" depart="261.041458981304" />
<vehicle id="type1_203" type="type1" route="nw" depart="261.1900466608767" />
<vehicle id="type1_204" type="type1" route="se" depart="261.27964986628643" />
<vehicle id="type1_205" type="type1" route="we" depart="261.87207344546476" />
<vehicle id="type1_206" type="type1" route="we" depart="262.43852665277143" />
<vehicle id="type1_207" type="type1" route="se" depart="264.30501444792264" />
<vehicle id="type1_208" type="type1" route="sw" depart="264.81806521612543" />
<vehicle id="type1_209" type="type1" route="ws" depart="264.92157037268703" />
<vehicle id="type1_210" type="type1" route="sn" depart="265.3824834513121" />
<vehicle id="type1_211" type="type1" route="nw" depart="267.23494701681847" />
<vehicle id="type1_212" type="type1" route="we" depart="267.29040719206637" />
<vehicle id="type1_213" type="type1" route="ws" depart="267.74604358969117" />
<vehicle id="type1_214" type="type1" route="we" depart="268.80512339287435" />
<vehicle id="type1_215" type="type1" route="es" depart="271.0482221936241" />
<vehicle id="type1_216" type="type1" route="ns" depart="271.8007518394977" />
<vehicle id="type1_217" type="type1" route="nw" depart="273.1077490986903" />
<vehicle id="type1_218" type="type1" route="sw" depart="274.2159150784121" />
<vehicle id="type1_219" type="type1" route="ns" depart="275.2186047279869" />
<vehicle id="type1_220" type="type1" route="es" depart="279.5218957626686" />
<vehicle id="type1_221" type="type1" route="ew" depart="282.53888936505945" />
<vehicle id="type1_222" type="type1" route="wn" depart="283.30135039882646" />
<vehicle id="type1_223" type="type1" route="sw" depart="283.5512598957124" />
<vehicle id="type1_224" type="type1" route="sw" depart="284.7651546698282" />
<vehicle id="type1_225" type="type1" route="ne" depart="285.8314899336515" />
<vehicle id="type1_226" type="type1" route="wn" depart="286.24965334559084" />
<vehicle id="type1_227" type="type1" route="en" depart="287.27641933403225" />
<vehicle id="type1_228" type="type1" route="en" depart="288.0119541501242" />
<vehicle id="type1_229" type="type1" route="ws" depart="289.0574391950469" />
<vehicle id="type1_230" type="type1" route="nw" depart="290.710656708145" />
<vehicle id="type1_231" type="type1" route="ew" depart="291.35644781909417" />
<vehicle id="type1_232" type="type1" route="ws" depart="291.5519887542603" />
<vehicle id="type1_233" type="type1" route="es" depart="291.79488126464486" />
<vehicle id="type1_234" type="type1" route="sn" depart="296.4762004527527" />
<vehicle id="type1_235" type="type1" route="we" depart="296.49026527440265" />
<vehicle id="type1_236" type="type1" route="se" depart="298.08655119652894" />
<vehicle id="type1_237" type="type1" route="sn" depart="298.6554193861034" />
<vehicle id="type1_238" type="type1" route="ws" depart="300.55262168908865" />
<vehicle id="type1_239" type="type1" route="nw" depart="300.769133682626" />
<vehicle id="type1_240" type="type1" route="we" depart="302.9896191060405" />
<vehicle id="type1_241" type="type1" route="ne" depart="304.5010363795401" />
<vehicle id="type1_242" type="type1" route="se" depart="304.5093322451304" />
<vehicle id="type1_243" type="type1" route="ws" depart="304.6593344928907" />
<vehicle id="type1_244" type="type1" route="en" depart="304.97043539563543" />
<vehicle id="type1_245" type="type1" route="ew" depart="305.2638590024292" />
<vehicle id="type1_246" type="type1" route="wn" depart="306.7093694375449" />
<vehicle id="type1_247" type="type1" route="sw" depart="306.76396545019946" />
<vehicle id="type1_248" type="type1" route="we" depart="309.74467685335395" />
<vehicle id="type1_249" type="type1" route="ws" depart="310.34835412735123" />
<vehicle id="type1_250" type="type1" route="nw" depart="311.75457775529577" />
<vehicle id="type1_251" type="type1" route="ne" depart="311.98443685030657" />
<vehicle id="type1_252" type="type1" route="sw" depart="316.93079950324693" />
<vehicle id="type1_253" type="type1" route="se" depart="317.38858294470936" />
<vehicle id="type1_254" type="type1" route="ns" depart="318.7092704622777" />
<vehicle id="type1_255" type="type1" route="ws" depart="319.2839929610101" />
<vehicle id="emv_8" type="rescue" route="ne" depart="322.76443374300055" />
<vehicle id="type1_256" type="type1" route="ew" depart="323.22110979725335" />
<vehicle id="type1_257" type="type1" route="we" depart="325.0992261128962" />
<vehicle id="type1_258" type="type1" route="wn" depart="325.17646949099657" />
<vehicle id="type1_259" type="type1" route="ws" depart="329.8286493538362" />
<vehicle id="type1_260" type="type1" route="ns" depart="329.833455569394" />
<vehicle id="type1_261" type="type1" route="ew" depart="330.0115304033577" />
<vehicle id="type1_262" type="type1" route="se" depart="330.3847891169518" />
<vehicle id="type1_263" type="type1" route="ws" depart="331.16429336592216" />
<vehicle id="type1_264" type="type1" route="we" depart="334.27575567459456" />
<vehicle id="type1_265" type="type1" route="ws" depart="337.0478532736793" />
<vehicle id="type1_266" type="type1" route="we" depart="337.65441660266913" />
<vehicle id="type1_267" type="type1" route="en" depart="338.71200561988604" />
<vehicle id="type1_268" type="type1" route="se" depart="341.5689601340529" />
<vehicle id="type1_269" type="type1" route="sw" depart="341.6679840265379" />
<vehicle id="type1_270" type="type1" route="we" depart="341.68176457921646" />
<vehicle id="type1_271" type="type1" route="we" depart="341.75543163066516" />
<vehicle id="emv_9" type="rescue" route="en" depart="343.4932127139394" />
<vehicle id="type1_272" type="type1" route="sw" depart="344.53216923161034" />
<vehicle id="type1_273" type="type1" route="nw" depart="345.3543543221092" />
<vehicle id="type1_274" type="type1" route="wn" depart="346.4157653351705" />
<vehicle id="type1_275" type="type1" route="ns" depart="348.70227902008924" />
<vehicle id="type1_276" type="type1" route="sn" depart="349.0920244410887" />
<vehicle id="type1_277" type="type1" route="en" depart="349.59986074507975" />
<vehicle id="type1_278" type="type1" route="sn" depart="350.9135439018664" />
<vehicle id="type1_279" type="type1" route="nw" depart="351.9188497299954" />
<vehicle id="type1_280" type="type1" route="we" depart="352.13528188486475" />
<vehicle id="type1_281" type="type1" route="ew" depart="352.9124378865018" />
<vehicle id="type1_282" type="type1" route="es" depart="353.09552180595995" />
<vehicle id="type1_283" type="type1" route="sn" depart="360.3879284191298" />
<vehicle id="type1_284" type="type1" route="ew" depart="361.76310615767045" />
<vehicle id="type1_285" type="type1" route="we" depart="364.6145222856345" />
<vehicle id="type1_286" type="type1" route="ws" depart="365.46370591318606" />
<vehicle id="type1_287" type="type1" route="ne" depart="365.78394850779216" />
<vehicle id="type1_288" type="type1" route="es" depart="366.4400387642959" />
<vehicle id="type1_289" type="type1" route="ns" depart="367.4485766902118" />
<vehicle id="type1_290" type="type1" route="se" depart="371.2108354517617" />
<vehicle id="type1_291" type="type1" route="ns" depart="374.5326096651635" />
</routes>