<routes>
            <vType id="type1" accel="0.8" decel="4.5" sigma="0.5" length="5" maxSpeed="70"/>
            <vType id="rescue" vClass="emergency" speedFactor="1.5" guiShape="emergency">
                <param key="has.bluelight.device" value="true"/>
            </vType>
            <route id="ne" edges="ni eo"/>
            <route id="ns" edges="ni so"/>
            <route id="nw" edges="ni wo"/>
            <route id="en" edges="ei no"/>
            <route id="es" edges="ei so"/>
            <route id="ew" edges="ei wo"/>
            <route id="sn" edges="si no"/>
            <route id="se" edges="si eo"/>
            <route id="sw" edges="si wo"/>
            <route id="wn" edges="wi no"/>
            <route id="we" edges="wi eo"/>
            <route id="ws" edges="wi so"/>
        
            <personFlow id="p_sn" begin="0" end="600" period="50">
                <walk route="sn"/>
            </personFlow>
                         
            <personFlow id="p_ns" begin="0" end="600" period="50">
                <walk route="ns"/>
            </personFlow>
                         
            <personFlow id="p_we" begin="0" end="600" period="50">
                <walk route="we"/>
            </personFlow>
                         
            <personFlow id="p_ew" begin="0" end="600" period="50">
                <walk route="ew"/>
            </personFlow>
                         <vehicle id="ws_0" type="type1" route="ws" depart="0.7434684208964637" />
<vehicle id="wn_1" type="type1" route="wn" depart="1.7841196603681118" />
<vehicle id="se_2" type="type1" route="se" depart="2.401655224717741" />
<vehicle id="ew_3" type="type1" route="ew" depart="2.4094910089838066" />
<vehicle id="nw_4" type="type1" route="nw" depart="3.18571900380452" />
<vehicle id="ns_5" type="type1" route="ns" depart="3.9976165321838" />
<vehicle id="we_6" type="type1" route="we" depart="4.038102344138322" />
<vehicle id="ew_7" type="type1" route="ew" depart="4.494396904127333" />
<vehicle id="es_8" type="type1" route="es" depart="5.304221341425064" />
<vehicle id="ne_9" type="type1" route="ne" depart="7.318187565093566" />
<vehicle id="we_10" type="type1" route="we" depart="8.420678721295044" />
<vehicle id="en_11" type="type1" route="en" depart="8.85427173852707" />
<vehicle id="ns_12" type="type1" route="ns" depart="9.71052380364727" />
<vehicle id="ew_13" type="type1" route="ew" depart="10.599034311816677" />
<vehicle id="sn_14" type="type1" route="sn" depart="11.794349584785149" />
<vehicle id="ns_15" type="type1" route="ns" depart="12.241627420936101" />
<vehicle id="ws_16" type="type1" route="ws" depart="14.820941931382428" />
<vehicle id="se_17" type="type1" route="se" depart="15.351778030832229" />
<vehicle id="nw_18" type="type1" route="nw" depart="15.520835559174252" />
<vehicle id="en_19" type="type1" route="en" depart="17.017863058757474" />
<vehicle id="en_20" type="type1" route="en" depart="17.480642370670854" />
<vehicle id="ne_21" type="type1" route="ne" depart="17.93165137863709" />
<vehicle id="es_22" type="type1" route="es" depart="18.119161651195615" />
<vehicle id="ws_23" type="type1" route="ws" depart="18.32242854952576" />
<vehicle id="sn_24" type="type1" route="sn" depart="19.242759229953883" />
<vehicle id="sn_25" type="type1" route="sn" depart="20.249680313022893" />
<vehicle id="en_26" type="type1" route="en" depart="21.09639059623738" />
<vehicle id="sn_27" type="type1" route="sn" depart="21.120931392572007" />
<vehicle id="es_28" type="rescue" route="es" depart="21.913817651376043" />
<vehicle id="we_29" type="type1" route="we" depart="23.30092735763572" />
<vehicle id="en_30" type="type1" route="en" depart="23.528948036383184" />
<vehicle id="es_31" type="type1" route="es" depart="24.0137494103343" />
<vehicle id="ne_32" type="type1" route="ne" depart="24.508249610667345" />
<vehicle id="es_33" type="type1" route="es" depart="25.175876123199515" />
<vehicle id="ns_34" type="type1" route="ns" depart="27.524780995000924" />
<vehicle id="ns_35" type="type1" route="ns" depart="28.444346855353473" />
<vehicle id="sw_36" type="type1" route="sw" depart="28.511127976833357" />
<vehicle id="nw_37" type="type1" route="nw" depart="31.638517450159977" />
<vehicle id="ns_38" type="type1" route="ns" depart="31.778215777770058" />
<vehicle id="sw_39" type="type1" route="sw" depart="31.789760493363403" />
<vehicle id="en_40" type="type1" route="en" depart="31.95163466371656" />
<vehicle id="wn_41" type="type1" route="wn" depart="33.31897539809623" />
<vehicle id="sw_42" type="type1" route="sw" depart="33.495868717735256" />
<vehicle id="sn_43" type="type1" route="sn" depart="33.521674536261045" />
<vehicle id="we_44" type="type1" route="we" depart="33.62833110965401" />
<vehicle id="sw_45" type="type1" route="sw" depart="33.90109786680138" />
<vehicle id="sw_46" type="type1" route="sw" depart="34.708056594257464" />
<vehicle id="we_47" type="type1" route="we" depart="35.24261160756555" />
<vehicle id="ws_48" type="type1" route="ws" depart="35.68089567486974" />
<vehicle id="nw_49" type="type1" route="nw" depart="35.71828848799384" />
<vehicle id="we_50" type="type1" route="we" depart="36.45228791536664" />
<vehicle id="nw_51" type="type1" route="nw" depart="36.749355581901604" />
<vehicle id="wn_52" type="type1" route="wn" depart="37.356407861362584" />
<vehicle id="en_53" type="type1" route="en" depart="38.19423457314196" />
<vehicle id="ne_54" type="type1" route="ne" depart="38.98798661502181" />
<vehicle id="ne_55" type="type1" route="ne" depart="40.35248634517027" />
<vehicle id="se_56" type="type1" route="se" depart="40.61624328944667" />
<vehicle id="sn_57" type="type1" route="sn" depart="41.07427157135427" />
<vehicle id="ew_58" type="type1" route="ew" depart="41.45437709668861" />
<vehicle id="we_59" type="type1" route="we" depart="41.625076478009866" />
<vehicle id="es_60" type="type1" route="es" depart="42.661095847409825" />
<vehicle id="nw_61" type="type1" route="nw" depart="43.03085832206175" />
<vehicle id="es_62" type="type1" route="es" depart="43.19581841838918" />
<vehicle id="se_63" type="rescue" route="se" depart="44.46664090510137" />
<vehicle id="sw_64" type="type1" route="sw" depart="46.498462134695416" />
<vehicle id="en_65" type="type1" route="en" depart="48.49478190641983" />
<vehicle id="sw_66" type="type1" route="sw" depart="48.92808125035155" />
<vehicle id="ws_67" type="type1" route="ws" depart="49.45238930619401" />
<vehicle id="se_68" type="type1" route="se" depart="49.60502646441661" />
<vehicle id="se_69" type="rescue" route="se" depart="50.361384838731" />
<vehicle id="se_70" type="type1" route="se" depart="51.2290125893586" />
<vehicle id="sw_71" type="type1" route="sw" depart="51.56201857850851" />
<vehicle id="ew_72" type="type1" route="ew" depart="52.076467832345244" />
<vehicle id="en_73" type="type1" route="en" depart="52.81207754786278" />
<vehicle id="we_74" type="type1" route="we" depart="52.93140776865339" />
<vehicle id="ws_75" type="type1" route="ws" depart="53.050862265382044" />
<vehicle id="ew_76" type="type1" route="ew" depart="53.1341044219654" />
<vehicle id="ew_77" type="type1" route="ew" depart="53.809627125672314" />
<vehicle id="en_78" type="type1" route="en" depart="54.12610177155872" />
<vehicle id="ne_79" type="type1" route="ne" depart="54.74286056883051" />
<vehicle id="es_80" type="type1" route="es" depart="56.15460566482601" />
<vehicle id="es_81" type="type1" route="es" depart="56.18088066951192" />
<vehicle id="nw_82" type="type1" route="nw" depart="56.23032869985322" />
<vehicle id="en_83" type="type1" route="en" depart="57.352009730090884" />
<vehicle id="ne_84" type="type1" route="ne" depart="58.92577875572922" />
<vehicle id="se_85" type="type1" route="se" depart="62.15158198962692" />
<vehicle id="es_86" type="type1" route="es" depart="62.23832025735553" />
<vehicle id="ns_87" type="type1" route="ns" depart="63.16254471340323" />
<vehicle id="sn_88" type="type1" route="sn" depart="63.9319807810034" />
<vehicle id="we_89" type="type1" route="we" depart="64.02722436622703" />
<vehicle id="se_90" type="type1" route="se" depart="64.06923419408815" />
<vehicle id="ws_91" type="type1" route="ws" depart="66.08527866269361" />
<vehicle id="ns_92" type="type1" route="ns" depart="66.28170197729078" />
<vehicle id="sw_93" type="type1" route="sw" depart="66.45464252163019" />
<vehicle id="sn_94" type="type1" route="sn" depart="66.5805953362932" />
<vehicle id="wn_95" type="type1" route="wn" depart="66.96740501669005" />
<vehicle id="en_96" type="type1" route="en" depart="66.99925823326079" />
<vehicle id="sn_97" type="type1" route="sn" depart="67.56152333473958" />
<vehicle id="wn_98" type="type1" route="wn" depart="68.79693305789375" />
<vehicle id="en_99" type="type1" route="en" depart="70.59428938157198" />
<vehicle id="wn_100" type="type1" route="wn" depart="70.69491667818424" />
<vehicle id="sn_101" type="type1" route="sn" depart="71.03037034736802" />
<vehicle id="es_102" type="type1" route="es" depart="71.30789047119784" />
<vehicle id="ew_103" type="type1" route="ew" depart="71.46743213386999" />
<vehicle id="nw_104" type="type1" route="nw" depart="71.72691464295013" />
<vehicle id="ws_105" type="type1" route="ws" depart="72.08063142199865" />
<vehicle id="ew_106" type="type1" route="ew" depart="72.159682835799" />
<vehicle id="nw_107" type="type1" route="nw" depart="74.44688498055568" />
<vehicle id="en_108" type="type1" route="en" depart="74.62005287326723" />
<vehicle id="ne_109" type="type1" route="ne" depart="75.44355731420407" />
<vehicle id="ew_110" type="type1" route="ew" depart="76.02155311365689" />
<vehicle id="ew_111" type="type1" route="ew" depart="76.03617423815767" />
<vehicle id="ne_112" type="type1" route="ne" depart="77.41750812075679" />
<vehicle id="sn_113" type="type1" route="sn" depart="78.15166129320455" />
<vehicle id="sw_114" type="type1" route="sw" depart="78.92766601524691" />
<vehicle id="ws_115" type="type1" route="ws" depart="80.1010566167605" />
<vehicle id="wn_116" type="type1" route="wn" depart="80.27328225528925" />
<vehicle id="ew_117" type="type1" route="ew" depart="80.97796724181602" />
<vehicle id="we_118" type="type1" route="we" depart="81.28583618152557" />
<vehicle id="se_119" type="type1" route="se" depart="83.06075578659842" />
<vehicle id="ew_120" type="type1" route="ew" depart="86.15352634716913" />
<vehicle id="ns_121" type="type1" route="ns" depart="87.81749616434588" />
<vehicle id="ws_122" type="type1" route="ws" depart="88.90620890037567" />
<vehicle id="we_123" type="type1" route="we" depart="89.87688496323426" />
<vehicle id="en_124" type="type1" route="en" depart="90.12714364689988" />
<vehicle id="ws_125" type="type1" route="ws" depart="90.20156769185749" />
<vehicle id="nw_126" type="type1" route="nw" depart="90.33203277913225" />
<vehicle id="sw_127" type="type1" route="sw" depart="91.91753803476671" />
<vehicle id="ws_128" type="type1" route="ws" depart="92.93541258420092" />
<vehicle id="ns_129" type="type1" route="ns" depart="94.65881108809711" />
<vehicle id="sn_130" type="type1" route="sn" depart="96.55310911706756" />
<vehicle id="se_131" type="type1" route="se" depart="97.01240672686596" />
<vehicle id="wn_132" type="type1" route="wn" depart="97.300213086775" />
<vehicle id="nw_133" type="type1" route="nw" depart="97.61410506742473" />
<vehicle id="ns_134" type="type1" route="ns" depart="98.28210098657841" />
<vehicle id="ne_135" type="type1" route="ne" depart="98.53803139652875" />
<vehicle id="wn_136" type="type1" route="wn" depart="100.89542489566293" />
<vehicle id="we_137" type="type1" route="we" depart="101.46780918619167" />
<vehicle id="ws_138" type="type1" route="ws" depart="101.55850927943375" />
<vehicle id="sn_139" type="type1" route="sn" depart="103.72474108928563" />
<vehicle id="se_140" type="type1" route="se" depart="103.77039506323487" />
<vehicle id="nw_141" type="type1" route="nw" depart="104.16335905783764" />
<vehicle id="we_142" type="type1" route="we" depart="104.42218602229441" />
<vehicle id="wn_143" type="type1" route="wn" depart="104.7626418895677" />
<vehicle id="nw_144" type="type1" route="nw" depart="104.88328056593747" />
<vehicle id="wn_145" type="type1" route="wn" depart="105.71906432746637" />
<vehicle id="ns_146" type="type1" route="ns" depart="106.11543486409606" />
<vehicle id="we_147" type="type1" route="we" depart="106.3115572639102" />
<vehicle id="nw_148" type="type1" route="nw" depart="106.36730484021508" />
<vehicle id="en_149" type="type1" route="en" depart="106.5572521854669" />
<vehicle id="se_150" type="type1" route="se" depart="107.10877650891817" />
<vehicle id="en_151" type="type1" route="en" depart="107.23333875878633" />
<vehicle id="we_152" type="type1" route="we" depart="107.46014105831847" />
<vehicle id="se_153" type="type1" route="se" depart="108.25991203365113" />
<vehicle id="wn_154" type="type1" route="wn" depart="109.55765748804065" />
<vehicle id="sn_155" type="type1" route="sn" depart="109.7508871124619" />
<vehicle id="en_156" type="type1" route="en" depart="110.93990241935958" />
<vehicle id="es_157" type="type1" route="es" depart="111.04123609907951" />
<vehicle id="sw_158" type="type1" route="sw" depart="111.05203575515768" />
<vehicle id="ew_159" type="type1" route="ew" depart="111.64678927578093" />
<vehicle id="sn_160" type="type1" route="sn" depart="111.90089457295221" />
<vehicle id="ne_161" type="type1" route="ne" depart="112.19607790520942" />
<vehicle id="en_162" type="type1" route="en" depart="113.23450785663539" />
<vehicle id="es_163" type="type1" route="es" depart="113.5476029955027" />
<vehicle id="ws_164" type="type1" route="ws" depart="116.5552876444704" />
<vehicle id="en_165" type="rescue" route="en" depart="117.15582019332716" />
<vehicle id="nw_166" type="type1" route="nw" depart="117.31133450319768" />
<vehicle id="en_167" type="type1" route="en" depart="118.0317427499464" />
<vehicle id="ew_168" type="type1" route="ew" depart="118.28433894622727" />
<vehicle id="sn_169" type="rescue" route="sn" depart="118.53621897791048" />
<vehicle id="en_170" type="type1" route="en" depart="118.83929474234242" />
<vehicle id="se_171" type="type1" route="se" depart="119.07818598812067" />
<vehicle id="ne_172" type="type1" route="ne" depart="119.28390364443085" />
<vehicle id="ws_173" type="type1" route="ws" depart="119.48206124804345" />
<vehicle id="es_174" type="type1" route="es" depart="119.7498214777065" />
<vehicle id="en_175" type="type1" route="en" depart="120.42365964922735" />
<vehicle id="ew_176" type="type1" route="ew" depart="120.77520427410433" />
<vehicle id="ew_177" type="type1" route="ew" depart="120.80323139695878" />
<vehicle id="sw_178" type="type1" route="sw" depart="121.1688259887883" />
<vehicle id="es_179" type="type1" route="es" depart="125.95402222252865" />
<vehicle id="ns_180" type="type1" route="ns" depart="126.9720974112594" />
<vehicle id="sw_181" type="type1" route="sw" depart="127.639428371221" />
<vehicle id="es_182" type="type1" route="es" depart="127.72204514255792" />
<vehicle id="ns_183" type="type1" route="ns" depart="127.86471079058923" />
<vehicle id="es_184" type="type1" route="es" depart="128.07800619438308" />
<vehicle id="es_185" type="type1" route="es" depart="130.77213095468127" />
<vehicle id="ws_186" type="type1" route="ws" depart="131.09432342399882" />
<vehicle id="ns_187" type="type1" route="ns" depart="131.38212699385465" />
<vehicle id="ew_188" type="type1" route="ew" depart="131.4417417609086" />
<vehicle id="ws_189" type="type1" route="ws" depart="131.73223484417989" />
<vehicle id="wn_190" type="type1" route="wn" depart="132.35654131526582" />
<vehicle id="ws_191" type="type1" route="ws" depart="132.49623879272772" />
<vehicle id="en_192" type="type1" route="en" depart="132.76649128380257" />
<vehicle id="wn_193" type="type1" route="wn" depart="132.84354656696877" />
<vehicle id="se_194" type="type1" route="se" depart="133.7824235131169" />
<vehicle id="sw_195" type="type1" route="sw" depart="134.34092854828492" />
<vehicle id="sn_196" type="type1" route="sn" depart="134.51881750352766" />
<vehicle id="wn_197" type="type1" route="wn" depart="134.7179940282958" />
<vehicle id="en_198" type="type1" route="en" depart="134.81196378033542" />
<vehicle id="ws_199" type="type1" route="ws" depart="136.05946269465923" />
<vehicle id="nw_200" type="type1" route="nw" depart="136.33847188487093" />
<vehicle id="we_201" type="type1" route="we" depart="136.89905320772954" />
<vehicle id="wn_202" type="type1" route="wn" depart="137.16703343091507" />
<vehicle id="es_203" type="type1" route="es" depart="138.35230005785587" />
<vehicle id="sw_204" type="type1" route="sw" depart="138.58913921833965" />
<vehicle id="ne_205" type="type1" route="ne" depart="143.26539397842885" />
<vehicle id="sn_206" type="type1" route="sn" depart="143.32683355112906" />
<vehicle id="wn_207" type="type1" route="wn" depart="143.48384216201407" />
<vehicle id="ns_208" type="type1" route="ns" depart="144.43408896022896" />
<vehicle id="ns_209" type="type1" route="ns" depart="144.64150893324071" />
<vehicle id="sn_210" type="type1" route="sn" depart="146.1648475098445" />
<vehicle id="es_211" type="type1" route="es" depart="146.75772601094818" />
<vehicle id="nw_212" type="type1" route="nw" depart="146.96625864415046" />
<vehicle id="ne_213" type="type1" route="ne" depart="147.06602988448748" />
<vehicle id="ne_214" type="type1" route="ne" depart="147.5783849480538" />
<vehicle id="es_215" type="type1" route="es" depart="148.11419285331135" />
<vehicle id="nw_216" type="type1" route="nw" depart="150.1006212538618" />
<vehicle id="se_217" type="type1" route="se" depart="150.33759870769507" />
<vehicle id="we_218" type="type1" route="we" depart="150.64365364991403" />
<vehicle id="wn_219" type="type1" route="wn" depart="154.60139780486782" />
<vehicle id="ws_220" type="type1" route="ws" depart="156.03232251563904" />
<vehicle id="se_221" type="rescue" route="se" depart="157.51456038416862" />
<vehicle id="we_222" type="type1" route="we" depart="158.07892329153836" />
<vehicle id="ew_223" type="type1" route="ew" depart="158.10090502866186" />
<vehicle id="sw_224" type="type1" route="sw" depart="158.27044706219849" />
<vehicle id="ns_225" type="type1" route="ns" depart="158.40917966402748" />
<vehicle id="ne_226" type="type1" route="ne" depart="160.47387676623575" />
<vehicle id="es_227" type="type1" route="es" depart="161.13488053324645" />
<vehicle id="es_228" type="type1" route="es" depart="161.5722460245241" />
<vehicle id="sw_229" type="type1" route="sw" depart="162.31097486982867" />
<vehicle id="es_230" type="type1" route="es" depart="162.49095022174834" />
<vehicle id="ne_231" type="type1" route="ne" depart="162.63644916836213" />
<vehicle id="ne_232" type="type1" route="ne" depart="164.30853567766863" />
<vehicle id="ws_233" type="type1" route="ws" depart="164.4308637816891" />
<vehicle id="ws_234" type="type1" route="ws" depart="164.63756882343475" />
<vehicle id="ew_235" type="type1" route="ew" depart="167.48697593532296" />
<vehicle id="ew_236" type="type1" route="ew" depart="168.92397468894666" />
<vehicle id="ws_237" type="type1" route="ws" depart="169.67968929372105" />
<vehicle id="wn_238" type="type1" route="wn" depart="169.97431055100841" />
<vehicle id="sn_239" type="type1" route="sn" depart="171.4204024391825" />
<vehicle id="wn_240" type="type1" route="wn" depart="172.24623478603624" />
<vehicle id="se_241" type="type1" route="se" depart="174.18321631288708" />
<vehicle id="ew_242" type="type1" route="ew" depart="176.33223839111196" />
<vehicle id="sw_243" type="type1" route="sw" depart="177.3150144074587" />
<vehicle id="en_244" type="type1" route="en" depart="179.63779214408396" />
<vehicle id="se_245" type="type1" route="se" depart="180.89240834239484" />
<vehicle id="sw_246" type="type1" route="sw" depart="183.65022400782385" />
<vehicle id="ws_247" type="type1" route="ws" depart="183.6571022719936" />
<vehicle id="en_248" type="type1" route="en" depart="185.2455509185316" />
<vehicle id="en_249" type="type1" route="en" depart="186.830242936909" />
<vehicle id="en_250" type="type1" route="en" depart="186.88123861476728" />
<vehicle id="se_251" type="type1" route="se" depart="188.73800378188622" />
<vehicle id="sn_252" type="type1" route="sn" depart="188.90728412239278" />
<vehicle id="ns_253" type="type1" route="ns" depart="189.06486850849552" />
<vehicle id="ew_254" type="type1" route="ew" depart="189.56057108233637" />
<vehicle id="sw_255" type="type1" route="sw" depart="189.84383416339568" />
<vehicle id="ws_256" type="type1" route="ws" depart="191.8949930251385" />
<vehicle id="sw_257" type="type1" route="sw" depart="194.84606066806663" />
<vehicle id="ne_258" type="type1" route="ne" depart="195.0489265226828" />
<vehicle id="se_259" type="type1" route="se" depart="195.25053058849264" />
<vehicle id="we_260" type="type1" route="we" depart="195.27645370848384" />
<vehicle id="ew_261" type="type1" route="ew" depart="195.5085652708857" />
<vehicle id="ws_262" type="type1" route="ws" depart="195.59617316208045" />
<vehicle id="en_263" type="type1" route="en" depart="195.64827476450566" />
<vehicle id="en_264" type="type1" route="en" depart="196.43936117795377" />
<vehicle id="we_265" type="type1" route="we" depart="196.59851293254474" />
<vehicle id="we_266" type="type1" route="we" depart="196.64030390538798" />
<vehicle id="we_267" type="type1" route="we" depart="197.15255901028468" />
<vehicle id="sw_268" type="type1" route="sw" depart="197.64074607341445" />
<vehicle id="se_269" type="type1" route="se" depart="198.1583354738645" />
<vehicle id="sn_270" type="type1" route="sn" depart="198.24070525327753" />
<vehicle id="nw_271" type="type1" route="nw" depart="199.43126711225187" />
<vehicle id="sw_272" type="type1" route="sw" depart="199.81556654650043" />
<vehicle id="es_273" type="type1" route="es" depart="200.74018371068257" />
<vehicle id="sn_274" type="type1" route="sn" depart="200.88152722891698" />
<vehicle id="ne_275" type="type1" route="ne" depart="201.36777255969625" />
<vehicle id="sn_276" type="type1" route="sn" depart="201.81138979487153" />
<vehicle id="en_277" type="type1" route="en" depart="201.9559037049485" />
<vehicle id="es_278" type="type1" route="es" depart="202.076797255525" />
<vehicle id="sw_279" type="type1" route="sw" depart="202.17977674518636" />
<vehicle id="sw_280" type="type1" route="sw" depart="203.02265847190242" />
<vehicle id="ns_281" type="type1" route="ns" depart="203.65915690456185" />
<vehicle id="en_282" type="type1" route="en" depart="203.90929006171402" />
<vehicle id="we_283" type="type1" route="we" depart="204.24629157311503" />
<vehicle id="se_284" type="type1" route="se" depart="204.344698414334" />
<vehicle id="wn_285" type="type1" route="wn" depart="204.92372179827197" />
<vehicle id="ns_286" type="type1" route="ns" depart="205.78768029085438" />
<vehicle id="ne_287" type="type1" route="ne" depart="206.51909670353322" />
<vehicle id="sw_288" type="type1" route="sw" depart="207.22916408831676" />
<vehicle id="nw_289" type="type1" route="nw" depart="207.25085304108725" />
<vehicle id="ws_290" type="type1" route="ws" depart="207.54473242862542" />
<vehicle id="ws_291" type="type1" route="ws" depart="207.7969833111271" />
<vehicle id="se_292" type="type1" route="se" depart="208.00577413839758" />
<vehicle id="ws_293" type="type1" route="ws" depart="208.09965070997097" />
<vehicle id="ns_294" type="type1" route="ns" depart="208.81627002714433" />
<vehicle id="sn_295" type="type1" route="sn" depart="209.09227245207185" />
<vehicle id="es_296" type="type1" route="es" depart="209.96765542474714" />
<vehicle id="ws_297" type="type1" route="ws" depart="211.2862502855397" />
<vehicle id="se_298" type="type1" route="se" depart="212.45950890853467" />
<vehicle id="ws_299" type="type1" route="ws" depart="214.24074334452501" />
<vehicle id="ns_300" type="type1" route="ns" depart="214.75636312876333" />
<vehicle id="we_301" type="type1" route="we" depart="215.2110189902215" />
<vehicle id="es_302" type="type1" route="es" depart="215.45536176495366" />
<vehicle id="ws_303" type="type1" route="ws" depart="217.46173011240242" />
<vehicle id="sn_304" type="type1" route="sn" depart="218.15816254323784" />
<vehicle id="sw_305" type="type1" route="sw" depart="219.44302779400553" />
<vehicle id="we_306" type="type1" route="we" depart="219.6836768437566" />
<vehicle id="sn_307" type="type1" route="sn" depart="220.46639617638502" />
<vehicle id="ew_308" type="type1" route="ew" depart="220.87129876516863" />
<vehicle id="se_309" type="type1" route="se" depart="221.43559398413873" />
<vehicle id="es_310" type="type1" route="es" depart="221.9645726220095" />
<vehicle id="es_311" type="type1" route="es" depart="223.3939963684562" />
<vehicle id="sw_312" type="type1" route="sw" depart="223.84308870366266" />
<vehicle id="wn_313" type="type1" route="wn" depart="223.88144165959935" />
<vehicle id="se_314" type="type1" route="se" depart="224.0626245666192" />
<vehicle id="ns_315" type="type1" route="ns" depart="224.59531294039772" />
<vehicle id="sw_316" type="type1" route="sw" depart="225.35216624030596" />
<vehicle id="se_317" type="type1" route="se" depart="225.5698987667639" />
<vehicle id="ew_318" type="type1" route="ew" depart="225.6367012574715" />
<vehicle id="se_319" type="type1" route="se" depart="226.72393798963944" />
<vehicle id="ew_320" type="type1" route="ew" depart="227.02458878302042" />
<vehicle id="ws_321" type="rescue" route="ws" depart="227.2225852616924" />
<vehicle id="ws_322" type="type1" route="ws" depart="227.52970857367993" />
<vehicle id="en_323" type="type1" route="en" depart="228.52913271742585" />
<vehicle id="es_324" type="type1" route="es" depart="229.3504628963185" />
<vehicle id="ws_325" type="type1" route="ws" depart="229.78672584505355" />
<vehicle id="nw_326" type="type1" route="nw" depart="230.98068967282222" />
<vehicle id="ns_327" type="type1" route="ns" depart="231.30209791539676" />
<vehicle id="se_328" type="type1" route="se" depart="232.31489379127325" />
<vehicle id="es_329" type="type1" route="es" depart="233.29409927836187" />
<vehicle id="nw_330" type="type1" route="nw" depart="233.7197367125321" />
<vehicle id="sn_331" type="type1" route="sn" depart="234.8417554562041" />
<vehicle id="ns_332" type="type1" route="ns" depart="235.22371200737555" />
<vehicle id="wn_333" type="type1" route="wn" depart="235.86526472826182" />
<vehicle id="sw_334" type="type1" route="sw" depart="237.0987181388039" />
<vehicle id="en_335" type="type1" route="en" depart="237.54418767417275" />
<vehicle id="ew_336" type="type1" route="ew" depart="240.43029231036303" />
<vehicle id="ew_337" type="type1" route="ew" depart="240.44803848423464" />
<vehicle id="es_338" type="type1" route="es" depart="240.4751197966251" />
<vehicle id="nw_339" type="type1" route="nw" depart="241.0034562895254" />
<vehicle id="es_340" type="type1" route="es" depart="241.81761824902654" />
<vehicle id="sn_341" type="type1" route="sn" depart="242.94814157066068" />
<vehicle id="we_342" type="type1" route="we" depart="243.07356560429034" />
<vehicle id="we_343" type="type1" route="we" depart="244.3347251710522" />
<vehicle id="sn_344" type="type1" route="sn" depart="244.73331651409063" />
<vehicle id="ws_345" type="type1" route="ws" depart="244.8866133153337" />
<vehicle id="nw_346" type="type1" route="nw" depart="244.8987768280148" />
<vehicle id="ws_347" type="type1" route="ws" depart="245.13403161185616" />
<vehicle id="we_348" type="type1" route="we" depart="246.31565235322483" />
<vehicle id="nw_349" type="type1" route="nw" depart="246.84274600092445" />
<vehicle id="se_350" type="type1" route="se" depart="248.32709799333088" />
<vehicle id="wn_351" type="type1" route="wn" depart="249.9939936954605" />
<vehicle id="se_352" type="type1" route="se" depart="250.61271792658005" />
<vehicle id="sw_353" type="type1" route="sw" depart="251.8140650641747" />
<vehicle id="sw_354" type="type1" route="sw" depart="252.4436614989492" />
<vehicle id="ws_355" type="type1" route="ws" depart="253.5840679604765" />
<vehicle id="ws_356" type="type1" route="ws" depart="255.92808228020303" />
<vehicle id="ws_357" type="type1" route="ws" depart="256.21495330555325" />
<vehicle id="en_358" type="type1" route="en" depart="256.5904822686368" />
<vehicle id="se_359" type="type1" route="se" depart="258.9191410899794" />
<vehicle id="en_360" type="type1" route="en" depart="259.34952463544727" />
<vehicle id="sw_361" type="type1" route="sw" depart="259.63970917190966" />
<vehicle id="nw_362" type="type1" route="nw" depart="259.83929748271794" />
<vehicle id="en_363" type="type1" route="en" depart="260.8767705474111" />
<vehicle id="nw_364" type="type1" route="nw" depart="262.85774598995965" />
<vehicle id="ne_365" type="type1" route="ne" depart="264.3502551289684" />
<vehicle id="nw_366" type="type1" route="nw" depart="264.77595611144295" />
<vehicle id="ns_367" type="type1" route="ns" depart="265.13590426677075" />
<vehicle id="ws_368" type="type1" route="ws" depart="265.16732964675543" />
<vehicle id="en_369" type="type1" route="en" depart="266.22159016764533" />
<vehicle id="ew_370" type="type1" route="ew" depart="266.2631593462457" />
<vehicle id="wn_371" type="type1" route="wn" depart="266.3408557104098" />
<vehicle id="en_372" type="type1" route="en" depart="266.5001985611446" />
<vehicle id="ns_373" type="type1" route="ns" depart="267.4253804329243" />
<vehicle id="es_374" type="type1" route="es" depart="268.19190947750076" />
<vehicle id="ns_375" type="type1" route="ns" depart="269.4042642518424" />
<vehicle id="ns_376" type="type1" route="ns" depart="270.5878050013349" />
<vehicle id="sw_377" type="type1" route="sw" depart="270.84603728137597" />
<vehicle id="ws_378" type="type1" route="ws" depart="274.73485601503916" />