<routes>
            <vType id="type1" accel="0.8" decel="4.5" sigma="0.5" length="5" maxSpeed="70"/>
            <vType id="rescue" vClass="emergency" speedFactor="1.5" guiShape="emergency">
                <param key="has.bluelight.device" value="true"/>
            </vType>
            <route id="ne" edges="ni eo"/>
            <route id="ns" edges="ni so"/>
            <route id="nw" edges="ni wo"/>
            <route id="en" edges="ei no"/>
            <route id="es" edges="ei so"/>
            <route id="ew" edges="ei wo"/>
            <route id="sn" edges="si no"/>
            <route id="se" edges="si eo"/>
            <route id="sw" edges="si wo"/>
            <route id="wn" edges="wi no"/>
            <route id="we" edges="wi eo"/>
            <route id="ws" edges="wi so"/>
        
            <personFlow id="p_ns" begin="0" end="300" period="50">
                <walk route="ns"/>
            </personFlow>
                         
            <personFlow id="p_we" begin="0" end="300" period="50">
                <walk route="we"/>
            </personFlow>
                         
            <personFlow id="p_sn" begin="0" end="300" period="50">
                <walk route="sn"/>
            </personFlow>
                         
            <personFlow id="p_ew" begin="0" end="300" period="50">
                <walk route="ew"/>
            </personFlow>
                         <vehicle id="type1_1" type="type1" route="wn" depart="1.491281423447612" />
<vehicle id="type1_2" type="type1" route="sn" depart="3.870993752282918" />
<vehicle id="type1_3" type="type1" route="en" depart="5.073839746162303" />
<vehicle id="type1_4" type="type1" route="sn" depart="6.3948667490109905" />
<vehicle id="type1_5" type="type1" route="we" depart="8.462943175360165" />
<vehicle id="type1_6" type="type1" route="ne" depart="23.31663728167917" />
<vehicle id="type1_7" type="type1" route="ew" depart="23.340585040878864" />
<vehicle id="emv_1" type="rescue" route="ws" depart="23.816780838485215" />
<vehicle id="type1_8" type="type1" route="ne" depart="24.33368812913508" />
<vehicle id="type1_9" type="type1" route="nw" depart="27.229219312443742" />
<vehicle id="type1_10" type="type1" route="se" depart="28.27048573117515" />
<vehicle id="type1_11" type="type1" route="we" depart="29.009817321151818" />
<vehicle id="type1_12" type="type1" route="nw" depart="29.38712637980687" />
<vehicle id="type1_13" type="type1" route="we" depart="32.88402079846192" />
<vehicle id="type1_14" type="type1" route="sn" depart="35.04409885285839" />
<vehicle id="type1_15" type="type1" route="en" depart="35.18034733882168" />
<vehicle id="type1_16" type="type1" route="wn" depart="35.33853505547538" />
<vehicle id="type1_17" type="type1" route="wn" depart="35.3632740122786" />
<vehicle id="type1_18" type="type1" route="nw" depart="35.4882874205207" />
<vehicle id="type1_19" type="type1" route="es" depart="35.887063605241075" />
<vehicle id="type1_20" type="type1" route="en" depart="36.13194082746905" />
<vehicle id="type1_21" type="type1" route="sw" depart="37.85817620719665" />
<vehicle id="type1_22" type="type1" route="sn" depart="40.09071396113946" />
<vehicle id="type1_23" type="type1" route="wn" depart="42.11772794504453" />
<vehicle id="type1_24" type="type1" route="sw" depart="42.31711052112563" />
<vehicle id="type1_25" type="type1" route="en" depart="42.38099477390241" />
<vehicle id="type1_26" type="type1" route="en" depart="42.51973569924802" />
<vehicle id="type1_27" type="type1" route="sn" depart="44.77122202669089" />
<vehicle id="type1_28" type="type1" route="wn" depart="44.94179163993018" />
<vehicle id="type1_29" type="type1" route="sw" depart="46.21734698992384" />
<vehicle id="type1_30" type="type1" route="ns" depart="47.177972699991386" />
<vehicle id="type1_31" type="type1" route="wn" depart="48.31220014049724" />
<vehicle id="type1_32" type="type1" route="wn" depart="50.01148610531485" />
<vehicle id="type1_33" type="type1" route="ns" depart="50.88889753796551" />
<vehicle id="type1_34" type="type1" route="en" depart="51.16225795605273" />
<vehicle id="type1_35" type="type1" route="se" depart="52.870822204226826" />
<vehicle id="type1_36" type="type1" route="sn" depart="53.235272726766965" />
<vehicle id="type1_37" type="type1" route="es" depart="55.3863116923815" />
<vehicle id="type1_38" type="type1" route="sw" depart="59.285918720343325" />
<vehicle id="type1_39" type="type1" route="ns" depart="61.349446325918" />
<vehicle id="type1_40" type="type1" route="es" depart="63.345289361042695" />
<vehicle id="type1_41" type="type1" route="we" depart="64.84464811793862" />
<vehicle id="type1_42" type="type1" route="nw" depart="66.93158572474118" />
<vehicle id="type1_43" type="type1" route="sn" depart="71.14024420903615" />
<vehicle id="type1_44" type="type1" route="ew" depart="72.97408503730021" />
<vehicle id="type1_45" type="type1" route="ne" depart="74.64560758748365" />
<vehicle id="type1_46" type="type1" route="ne" depart="75.29149054590927" />
<vehicle id="type1_47" type="type1" route="ew" depart="75.34020035532568" />
<vehicle id="type1_48" type="type1" route="es" depart="77.42698009225539" />
<vehicle id="type1_49" type="type1" route="wn" depart="77.49573380862824" />
<vehicle id="type1_50" type="type1" route="sn" depart="77.62424287566549" />
<vehicle id="type1_51" type="type1" route="en" depart="80.27067424780759" />
<vehicle id="type1_52" type="type1" route="es" depart="81.48685263676846" />
<vehicle id="type1_53" type="type1" route="wn" depart="83.14564062807118" />
<vehicle id="type1_54" type="type1" route="nw" depart="83.36114332525584" />
<vehicle id="type1_55" type="type1" route="sn" depart="83.86901722237874" />
<vehicle id="type1_56" type="type1" route="nw" depart="84.45543217458702" />
<vehicle id="type1_57" type="type1" route="wn" depart="85.21943917511022" />
<vehicle id="type1_58" type="type1" route="se" depart="86.40821100888331" />
<vehicle id="type1_59" type="type1" route="nw" depart="86.90929041584151" />
<vehicle id="type1_60" type="type1" route="ns" depart="87.17867073227254" />
<vehicle id="type1_61" type="type1" route="se" depart="87.47675494339397" />
<vehicle id="type1_62" type="type1" route="ne" depart="88.482696826681" />
<vehicle id="type1_63" type="type1" route="ns" depart="90.17421553424012" />
<vehicle id="type1_64" type="type1" route="ns" depart="91.73381312481553" />
<vehicle id="type1_65" type="type1" route="wn" depart="94.0539281499801" />
<vehicle id="type1_66" type="type1" route="sn" depart="95.13988035393675" />
<vehicle id="type1_67" type="type1" route="se" depart="96.15364049366178" />
<vehicle id="type1_68" type="type1" route="sn" depart="96.64930850012854" />
<vehicle id="type1_69" type="type1" route="es" depart="98.66817601570781" />
<vehicle id="type1_70" type="type1" route="ws" depart="100.61868525532782" />
<vehicle id="type1_71" type="type1" route="ew" depart="100.70438861113836" />
<vehicle id="type1_72" type="type1" route="sw" depart="101.7544620827385" />
<vehicle id="type1_73" type="type1" route="en" depart="102.53292356175976" />
<vehicle id="type1_74" type="type1" route="ne" depart="102.83477122026234" />
<vehicle id="type1_75" type="type1" route="we" depart="103.0818339399594" />
<vehicle id="type1_76" type="type1" route="wn" depart="103.7837764995164" />
<vehicle id="type1_77" type="type1" route="sn" depart="103.96541657165251" />
<vehicle id="type1_78" type="type1" route="ns" depart="106.10782830428066" />
<vehicle id="type1_79" type="type1" route="se" depart="109.29277019779279" />
<vehicle id="type1_80" type="type1" route="en" depart="112.32654426120754" />
<vehicle id="type1_81" type="type1" route="ns" depart="112.90807551784685" />
<vehicle id="type1_82" type="type1" route="sw" depart="113.68327568885621" />
<vehicle id="emv_2" type="rescue" route="ns" depart="115.31789418198876" />
<vehicle id="type1_83" type="type1" route="es" depart="115.4899923279915" />
<vehicle id="type1_84" type="type1" route="sn" depart="115.75907462652678" />
<vehicle id="type1_85" type="type1" route="wn" depart="118.3283771482626" />
<vehicle id="emv_3" type="rescue" route="en" depart="122.54887796414222" />
<vehicle id="type1_86" type="type1" route="nw" depart="127.51260944677924" />
<vehicle id="type1_87" type="type1" route="en" depart="127.66493528087038" />
<vehicle id="type1_88" type="type1" route="ns" depart="127.99571561830881" />
<vehicle id="type1_89" type="type1" route="es" depart="130.2470371841271" />
<vehicle id="type1_90" type="type1" route="sn" depart="130.4972734242198" />
<vehicle id="type1_91" type="type1" route="ws" depart="132.6543584959953" />
<vehicle id="type1_92" type="type1" route="ws" depart="133.20516481125972" />
<vehicle id="type1_93" type="type1" route="we" depart="133.7033010152554" />
<vehicle id="type1_94" type="type1" route="en" depart="134.26248645476414" />
<vehicle id="type1_95" type="type1" route="ew" depart="135.41195562600308" />
<vehicle id="type1_96" type="type1" route="we" depart="136.09642600515295" />
<vehicle id="type1_97" type="type1" route="se" depart="137.59412701929045" />
<vehicle id="type1_98" type="type1" route="se" depart="138.6122345655677" />
<vehicle id="type1_99" type="type1" route="we" depart="138.68843650847816" />
<vehicle id="type1_100" type="type1" route="se" depart="139.1561732479542" />
<vehicle id="type1_101" type="type1" route="ne" depart="139.3734971524478" />
<vehicle id="type1_102" type="type1" route="ew" depart="141.00492193181273" />
<vehicle id="type1_103" type="type1" route="en" depart="141.21923620269362" />
<vehicle id="type1_104" type="type1" route="es" depart="141.78222064625749" />
<vehicle id="type1_105" type="type1" route="es" depart="144.4751787724304" />
<vehicle id="type1_106" type="type1" route="sw" depart="145.06735864930735" />
<vehicle id="type1_107" type="type1" route="se" depart="148.40461754908011" />
<vehicle id="type1_108" type="type1" route="ew" depart="149.90959721615613" />
<vehicle id="type1_109" type="type1" route="es" depart="151.94561998625758" />
<vehicle id="type1_110" type="type1" route="sn" depart="153.10401345600602" />
<vehicle id="type1_111" type="type1" route="wn" depart="153.25883876158397" />
<vehicle id="type1_112" type="type1" route="ws" depart="155.44661230761918" />
<vehicle id="type1_113" type="type1" route="ew" depart="155.64999586876962" />
<vehicle id="type1_114" type="type1" route="se" depart="157.47791200531722" />
<vehicle id="type1_115" type="type1" route="nw" depart="159.22227991082414" />
<vehicle id="type1_116" type="type1" route="se" depart="161.53993924557184" />
<vehicle id="type1_117" type="type1" route="ns" depart="162.72162192957083" />
<vehicle id="type1_118" type="type1" route="ws" depart="162.825491146848" />
<vehicle id="type1_119" type="type1" route="ne" depart="163.5942077187793" />
<vehicle id="type1_120" type="type1" route="we" depart="165.61644954405085" />
<vehicle id="type1_121" type="type1" route="ws" depart="165.70983881712195" />
<vehicle id="type1_122" type="type1" route="ew" depart="167.77877705774907" />
<vehicle id="type1_123" type="type1" route="nw" depart="170.30796485291955" />
<vehicle id="type1_124" type="type1" route="es" depart="170.54536009158733" />
<vehicle id="type1_125" type="type1" route="ne" depart="176.9311036798623" />
<vehicle id="type1_126" type="type1" route="ws" depart="177.79034474123503" />
<vehicle id="type1_127" type="type1" route="se" depart="178.40112984029267" />
<vehicle id="emv_4" type="rescue" route="wn" depart="179.46440717829452" />
<vehicle id="type1_128" type="type1" route="wn" depart="180.01693859923384" />
<vehicle id="type1_129" type="type1" route="en" depart="180.67434854659447" />
<vehicle id="type1_130" type="type1" route="wn" depart="181.2032106208529" />
<vehicle id="type1_131" type="type1" route="wn" depart="184.3726574175975" />
<vehicle id="type1_132" type="type1" route="ew" depart="184.94361875982986" />
<vehicle id="type1_133" type="type1" route="we" depart="187.08454781494723" />
<vehicle id="type1_134" type="type1" route="ne" depart="187.19202581222876" />
<vehicle id="type1_135" type="type1" route="ew" depart="187.47706516060452" />
<vehicle id="type1_136" type="type1" route="se" depart="188.59500925808277" />
<vehicle id="type1_137" type="type1" route="we" depart="192.21783293723516" />
<vehicle id="type1_138" type="type1" route="nw" depart="192.92441929819947" />
<vehicle id="emv_5" type="rescue" route="ew" depart="194.05069235704605" />
<vehicle id="type1_139" type="type1" route="ne" depart="194.14359208835276" />
<vehicle id="type1_140" type="type1" route="sw" depart="197.38067527589345" />
<vehicle id="type1_141" type="type1" route="ew" depart="197.647739203383" />
<vehicle id="type1_142" type="type1" route="sn" depart="200.37938996319966" />
<vehicle id="type1_143" type="type1" route="ew" depart="201.64018873033066" />
<vehicle id="type1_144" type="type1" route="sn" depart="201.72836104256376" />
<vehicle id="type1_145" type="type1" route="wn" depart="201.89061819278035" />
<vehicle id="emv_6" type="rescue" route="sn" depart="202.34503391903388" />
<vehicle id="type1_146" type="type1" route="nw" depart="202.48823862293068" />
<vehicle id="type1_147" type="type1" route="se" depart="202.88891382317496" />
<vehicle id="type1_148" type="type1" route="ew" depart="203.99509999608506" />
<vehicle id="type1_149" type="type1" route="sw" depart="206.0612181293883" />
<vehicle id="type1_150" type="type1" route="en" depart="207.05793718062333" />
<vehicle id="type1_151" type="type1" route="we" depart="208.09200478729218" />
<vehicle id="type1_152" type="type1" route="nw" depart="208.23098992357473" />
<vehicle id="type1_153" type="type1" route="en" depart="209.48502096025348" />
<vehicle id="type1_154" type="type1" route="ew" depart="211.09345855498697" />
<vehicle id="type1_155" type="type1" route="ne" depart="212.43547053596515" />
<vehicle id="type1_156" type="type1" route="nw" depart="215.17308227212501" />
<vehicle id="type1_157" type="type1" route="en" depart="215.63362351235412" />
<vehicle id="type1_158" type="type1" route="nw" depart="216.509260564689" />
<vehicle id="type1_159" type="type1" route="wn" depart="217.0413844864213" />
<vehicle id="type1_160" type="type1" route="nw" depart="217.91773893403644" />
<vehicle id="type1_161" type="type1" route="ne" depart="218.01067836497361" />
<vehicle id="type1_162" type="type1" route="se" depart="218.79538075721436" />
<vehicle id="type1_163" type="type1" route="en" depart="219.36296041394456" />
<vehicle id="type1_164" type="type1" route="nw" depart="220.11420649907734" />
<vehicle id="type1_165" type="type1" route="sn" depart="222.38814684025934" />
<vehicle id="type1_166" type="type1" route="ew" depart="223.90200734702202" />
<vehicle id="type1_167" type="type1" route="nw" depart="225.87194370593195" />
<vehicle id="type1_168" type="type1" route="nw" depart="226.8736776243879" />
<vehicle id="type1_169" type="type1" route="se" depart="229.57273053825364" />
<vehicle id="type1_170" type="type1" route="we" depart="236.97978297558737" />
<vehicle id="type1_171" type="type1" route="se" depart="237.53003381143662" />
<vehicle id="type1_172" type="type1" route="se" depart="238.34917978937153" />
<vehicle id="type1_173" type="type1" route="ns" depart="239.90055201948925" />
<vehicle id="type1_174" type="type1" route="se" depart="239.98012443979187" />
<vehicle id="type1_175" type="type1" route="es" depart="242.27596171979147" />
<vehicle id="type1_176" type="type1" route="sw" depart="243.26378325131594" />
<vehicle id="type1_177" type="type1" route="ns" depart="244.3339851669695" />
<vehicle id="type1_178" type="type1" route="sw" depart="250.8875322768022" />
<vehicle id="type1_179" type="type1" route="wn" depart="251.19664907507982" />
<vehicle id="type1_180" type="type1" route="es" depart="254.92613261181256" />
<vehicle id="type1_181" type="type1" route="nw" depart="255.4574928812153" />
<vehicle id="type1_182" type="type1" route="se" depart="256.75629507144464" />
<vehicle id="type1_183" type="type1" route="ns" depart="257.9731896519496" />
<vehicle id="type1_184" type="type1" route="sn" depart="259.6986749698895" />
<vehicle id="type1_185" type="type1" route="se" depart="260.01116490950983" />
<vehicle id="type1_186" type="type1" route="es" depart="261.89641473130257" />
<vehicle id="type1_187" type="type1" route="en" depart="268.0456496031042" />
<vehicle id="type1_188" type="type1" route="sw" depart="268.26878187378156" />
<vehicle id="type1_189" type="type1" route="ns" depart="268.65612480897886" />
<vehicle id="type1_190" type="type1" route="ne" depart="270.9587526751175" />
<vehicle id="type1_191" type="type1" route="se" depart="271.48234521242176" />
<vehicle id="type1_192" type="type1" route="nw" depart="271.62191629517207" />
<vehicle id="type1_193" type="type1" route="ew" depart="273.6379684836812" />
<vehicle id="emv_7" type="rescue" route="sn" depart="273.77636974267966" />
<vehicle id="type1_194" type="type1" route="nw" depart="276.1129583448106" />
<vehicle id="type1_195" type="type1" route="nw" depart="276.77609418313784" />
<vehicle id="type1_196" type="type1" route="en" depart="276.85348524255846" />
<vehicle id="type1_197" type="type1" route="en" depart="279.2053704341147" />
<vehicle id="type1_198" type="type1" route="sw" depart="280.31243318498235" />
<vehicle id="type1_199" type="type1" route="se" depart="281.80091029607064" />
<vehicle id="type1_200" type="type1" route="ne" depart="282.1036541034663" />
<vehicle id="type1_201" type="type1" route="ns" depart="283.7236474267225" />
<vehicle id="type1_202" type="type1" route="ne" depart="285.14669087144506" />
<vehicle id="type1_203" type="type1" route="nw" depart="288.3873118073403" />
<vehicle id="type1_204" type="type1" route="se" depart="288.4049964593631" />
<vehicle id="type1_205" type="type1" route="we" depart="288.5868771602703" />
<vehicle id="type1_206" type="type1" route="we" depart="293.0283333008945" />
<vehicle id="type1_207" type="type1" route="se" depart="293.679153560545" />
<vehicle id="type1_208" type="type1" route="sw" depart="296.07507254160583" />
<vehicle id="type1_209" type="type1" route="ws" depart="296.71123294727926" />
<vehicle id="type1_210" type="type1" route="sn" depart="296.85314345487444" />
<vehicle id="type1_211" type="type1" route="nw" depart="297.91138323594106" />
<vehicle id="type1_212" type="type1" route="we" depart="298.48262051651744" />
<vehicle id="type1_213" type="type1" route="ws" depart="299.094101362618" />
<vehicle id="type1_214" type="type1" route="we" depart="299.2216148665604" />
<vehicle id="type1_215" type="type1" route="es" depart="300.0721687025335" />
<vehicle id="type1_216" type="type1" route="ns" depart="301.00094907197075" />
<vehicle id="type1_217" type="type1" route="nw" depart="302.3039427371369" />
<vehicle id="type1_218" type="type1" route="sw" depart="302.4904223110817" />
<vehicle id="type1_219" type="type1" route="ns" depart="303.892709142909" />
<vehicle id="type1_220" type="type1" route="es" depart="305.0972908817978" />
<vehicle id="type1_221" type="type1" route="ew" depart="305.62780805393953" />
<vehicle id="type1_222" type="type1" route="wn" depart="305.75096895068924" />
<vehicle id="type1_223" type="type1" route="sw" depart="305.93565821778935" />
<vehicle id="type1_224" type="type1" route="sw" depart="307.249689679459" />
<vehicle id="type1_225" type="type1" route="ne" depart="308.93552973662975" />
<vehicle id="type1_226" type="type1" route="wn" depart="310.3090115424075" />
<vehicle id="type1_227" type="type1" route="en" depart="310.6192709904352" />
<vehicle id="type1_228" type="type1" route="en" depart="312.77840031062703" />
<vehicle id="type1_229" type="type1" route="ws" depart="313.91592980899253" />
<vehicle id="type1_230" type="type1" route="nw" depart="314.97522590767534" />
<vehicle id="type1_231" type="type1" route="ew" depart="316.5965162883976" />
<vehicle id="type1_232" type="type1" route="ws" depart="316.77851856201096" />
<vehicle id="type1_233" type="type1" route="es" depart="316.9932016190896" />
<vehicle id="type1_234" type="type1" route="sn" depart="317.3838244186576" />
<vehicle id="type1_235" type="type1" route="we" depart="317.8696704350661" />
<vehicle id="type1_236" type="type1" route="se" depart="318.01900734468825" />
<vehicle id="type1_237" type="type1" route="sn" depart="318.8875299671669" />
<vehicle id="type1_238" type="type1" route="ws" depart="320.7608659500026" />
<vehicle id="type1_239" type="type1" route="nw" depart="320.7852667464799" />
<vehicle id="type1_240" type="type1" route="we" depart="323.0558811151525" />
<vehicle id="type1_241" type="type1" route="ne" depart="324.42448951940656" />
<vehicle id="type1_242" type="type1" route="se" depart="329.9513765580725" />
<vehicle id="type1_243" type="type1" route="ws" depart="332.1197338250419" />
<vehicle id="type1_244" type="type1" route="en" depart="337.7949486637236" />
<vehicle id="type1_245" type="type1" route="ew" depart="340.7408557511216" />
<vehicle id="type1_246" type="type1" route="wn" depart="342.2487197648354" />
<vehicle id="type1_247" type="type1" route="sw" depart="343.4564918254982" />
<vehicle id="type1_248" type="type1" route="we" depart="343.50702846255007" />
<vehicle id="type1_249" type="type1" route="ws" depart="345.0191170918615" />
<vehicle id="type1_250" type="type1" route="nw" depart="346.17231573629306" />
<vehicle id="type1_251" type="type1" route="ne" depart="346.70662957262965" />
<vehicle id="type1_252" type="type1" route="sw" depart="348.0142398466649" />
<vehicle id="type1_253" type="type1" route="se" depart="348.18261324306354" />
<vehicle id="type1_254" type="type1" route="ns" depart="348.6399252670686" />
<vehicle id="type1_255" type="type1" route="ws" depart="348.8283176922849" />
<vehicle id="emv_8" type="rescue" route="ne" depart="349.3437852153134" />
<vehicle id="type1_256" type="type1" route="ew" depart="349.9865822288506" />
<vehicle id="type1_257" type="type1" route="we" depart="350.2168967689002" />
<vehicle id="type1_258" type="type1" route="wn" depart="354.14078148026766" />
<vehicle id="type1_259" type="type1" route="ws" depart="354.6945869112702" />
<vehicle id="type1_260" type="type1" route="ns" depart="357.81907633698125" />
<vehicle id="type1_261" type="type1" route="ew" depart="360.93183706731395" />
<vehicle id="type1_262" type="type1" route="se" depart="362.83884738718444" />
<vehicle id="type1_263" type="type1" route="ws" depart="362.86235442889483" />
<vehicle id="type1_264" type="type1" route="we" depart="364.20075803400977" />
<vehicle id="type1_265" type="type1" route="ws" depart="364.20478705778015" />
<vehicle id="type1_266" type="type1" route="we" depart="365.98580712545174" />
<vehicle id="type1_267" type="type1" route="en" depart="368.61731154534885" />
<vehicle id="type1_268" type="type1" route="se" depart="369.39737192707173" />
<vehicle id="type1_269" type="type1" route="sw" depart="369.53127267735306" />
<vehicle id="type1_270" type="type1" route="we" depart="373.2660749111742" />
<vehicle id="type1_271" type="type1" route="we" depart="373.51022396167934" />
<vehicle id="emv_9" type="rescue" route="en" depart="374.1475060429744" />
<vehicle id="type1_272" type="type1" route="sw" depart="374.8040031708433" />
<vehicle id="type1_273" type="type1" route="nw" depart="377.33542195452327" />
<vehicle id="type1_274" type="type1" route="wn" depart="377.6514777831464" />
<vehicle id="type1_275" type="type1" route="ns" depart="379.30258562174447" />
<vehicle id="type1_276" type="type1" route="sn" depart="381.48149821337614" />
<vehicle id="type1_277" type="type1" route="en" depart="381.62622008589915" />
<vehicle id="type1_278" type="type1" route="sn" depart="382.1869032173473" />
<vehicle id="type1_279" type="type1" route="nw" depart="383.96817035604977" />
<vehicle id="type1_280" type="type1" route="we" depart="384.6329236996969" />
<vehicle id="type1_281" type="type1" route="ew" depart="385.77741010790993" />
<vehicle id="type1_282" type="type1" route="es" depart="385.9760267450114" />
<vehicle id="type1_283" type="type1" route="sn" depart="388.5476141257367" />
<vehicle id="type1_284" type="type1" route="ew" depart="388.9573870996266" />
<vehicle id="type1_285" type="type1" route="we" depart="390.33333773066323" />
<vehicle id="type1_286" type="type1" route="ws" depart="390.48565750229966" />
<vehicle id="type1_287" type="type1" route="ne" depart="395.05766518313095" />
<vehicle id="type1_288" type="type1" route="es" depart="395.87057345764526" />
<vehicle id="type1_289" type="type1" route="ns" depart="401.00182408357347" />
<vehicle id="type1_290" type="type1" route="se" depart="401.25724856509237" />
<vehicle id="type1_291" type="type1" route="ns" depart="401.9171357129726" />
</routes>