<routes>
            <vType id="type1" accel="0.8" decel="4.5" sigma="0.5" length="5" maxSpeed="70"/>
            <vType id="rescue" vClass="emergency" speedFactor="1.5" guiShape="emergency">
                <param key="has.bluelight.device" value="true"/>
            </vType>
            <route id="ne" edges="ni eo"/>
            <route id="ns" edges="ni so"/>
            <route id="nw" edges="ni wo"/>
            <route id="en" edges="ei no"/>
            <route id="es" edges="ei so"/>
            <route id="ew" edges="ei wo"/>
            <route id="sn" edges="si no"/>
            <route id="se" edges="si eo"/>
            <route id="sw" edges="si wo"/>
            <route id="wn" edges="wi no"/>
            <route id="we" edges="wi eo"/>
            <route id="ws" edges="wi so"/>
        
            <personFlow id="p_ns" begin="0" end="600" period="50">
                <walk route="ns"/>
            </personFlow>
                         
            <personFlow id="p_ew" begin="0" end="600" period="50">
                <walk route="ew"/>
            </personFlow>
                         
            <personFlow id="p_we" begin="0" end="600" period="50">
                <walk route="we"/>
            </personFlow>
                         
            <personFlow id="p_sn" begin="0" end="600" period="50">
                <walk route="sn"/>
            </personFlow>
                         <vehicle id="type1_1" type="type1" route="wn" depart="0.15608717379438475" />
<vehicle id="type1_2" type="type1" route="sw" depart="0.30141592311019066" />
<vehicle id="type1_3" type="type1" route="ew" depart="0.53050651289909" />
<vehicle id="emv_1" type="rescue" route="ws" depart="0.7448859443610986" />
<vehicle id="type1_4" type="type1" route="ws" depart="0.9792468398229024" />
<vehicle id="type1_5" type="type1" route="ew" depart="1.1240861039185415" />
<vehicle id="type1_6" type="type1" route="sw" depart="2.10406512023517" />
<vehicle id="type1_7" type="type1" route="sw" depart="3.206845328043835" />
<vehicle id="type1_8" type="type1" route="sn" depart="3.3472879298812397" />
<vehicle id="type1_9" type="type1" route="we" depart="5.121642338477805" />
<vehicle id="type1_10" type="type1" route="nw" depart="5.37062353677741" />
<vehicle id="type1_11" type="type1" route="wn" depart="5.830115047403738" />
<vehicle id="type1_12" type="type1" route="ew" depart="6.448175625044039" />
<vehicle id="type1_13" type="type1" route="wn" depart="6.456470201619507" />
<vehicle id="type1_14" type="type1" route="se" depart="7.149706591119173" />
<vehicle id="type1_15" type="type1" route="se" depart="7.772964844429689" />
<vehicle id="type1_16" type="type1" route="es" depart="8.111669815772439" />
<vehicle id="type1_17" type="type1" route="nw" depart="9.188493129570972" />
<vehicle id="type1_18" type="type1" route="ns" depart="9.614550322398795" />
<vehicle id="type1_19" type="type1" route="ne" depart="10.336396795519306" />
<vehicle id="type1_20" type="type1" route="sw" depart="10.768860278020906" />
<vehicle id="type1_21" type="type1" route="sw" depart="11.858799360963072" />
<vehicle id="type1_22" type="type1" route="wn" depart="13.047816966279171" />
<vehicle id="type1_23" type="type1" route="sn" depart="14.26691231324725" />
<vehicle id="type1_24" type="type1" route="ne" depart="14.399588601091803" />
<vehicle id="type1_25" type="type1" route="nw" depart="14.69938442543112" />
<vehicle id="type1_26" type="type1" route="sn" depart="14.723600371104776" />
<vehicle id="type1_27" type="type1" route="ne" depart="15.057816665615915" />
<vehicle id="type1_28" type="type1" route="ws" depart="15.516755917107268" />
<vehicle id="type1_29" type="type1" route="ws" depart="15.774040162763674" />
<vehicle id="type1_30" type="type1" route="sw" depart="16.061466010846118" />
<vehicle id="type1_31" type="type1" route="ne" depart="16.3669323419324" />
<vehicle id="type1_32" type="type1" route="ns" depart="16.481207168121934" />
<vehicle id="type1_33" type="type1" route="nw" depart="18.967726745998515" />
<vehicle id="type1_34" type="type1" route="ns" depart="19.252032574899673" />
<vehicle id="type1_35" type="type1" route="sw" depart="21.11188853512042" />
<vehicle id="type1_36" type="type1" route="nw" depart="22.002712164742224" />
<vehicle id="type1_37" type="type1" route="sn" depart="22.446389391955382" />
<vehicle id="emv_2" type="rescue" route="ne" depart="23.612159721419296" />
<vehicle id="type1_38" type="type1" route="ew" depart="23.65094259943765" />
<vehicle id="type1_39" type="type1" route="ew" depart="24.268413640472076" />
<vehicle id="type1_40" type="type1" route="en" depart="24.867513722007498" />
<vehicle id="type1_41" type="type1" route="ne" depart="25.197468009118" />
<vehicle id="type1_42" type="type1" route="sw" depart="25.961663799380883" />
<vehicle id="type1_43" type="type1" route="ws" depart="26.21966418162835" />
<vehicle id="type1_44" type="type1" route="en" depart="26.278753222113917" />
<vehicle id="type1_45" type="type1" route="sw" depart="26.694712501646368" />
<vehicle id="type1_46" type="type1" route="sn" depart="28.072919023271304" />
<vehicle id="type1_47" type="type1" route="en" depart="28.081693790716727" />
<vehicle id="type1_48" type="type1" route="ns" depart="28.51867117041715" />
<vehicle id="type1_49" type="type1" route="wn" depart="29.055285248140855" />
<vehicle id="emv_3" type="rescue" route="en" depart="29.482440801406618" />
<vehicle id="type1_50" type="type1" route="wn" depart="31.50123987499731" />
<vehicle id="type1_51" type="type1" route="en" depart="31.66404502464148" />
<vehicle id="type1_52" type="type1" route="en" depart="31.74938098977752" />
<vehicle id="type1_53" type="type1" route="es" depart="33.315231627277804" />
<vehicle id="type1_54" type="type1" route="en" depart="34.25375307127877" />
<vehicle id="type1_55" type="type1" route="sn" depart="35.522681447249504" />
<vehicle id="type1_56" type="type1" route="en" depart="36.63103702631149" />
<vehicle id="type1_57" type="type1" route="wn" depart="39.68972770016808" />
<vehicle id="type1_58" type="type1" route="ew" depart="40.57180964068697" />
<vehicle id="type1_59" type="type1" route="sn" depart="41.30799160597319" />
<vehicle id="type1_60" type="type1" route="sn" depart="41.35285744378817" />
<vehicle id="type1_61" type="type1" route="sn" depart="41.63361153495181" />
<vehicle id="type1_62" type="type1" route="se" depart="42.0440127269113" />
<vehicle id="type1_63" type="type1" route="sw" depart="42.2515743062703" />
<vehicle id="type1_64" type="type1" route="wn" depart="42.25807408361841" />
<vehicle id="type1_65" type="type1" route="nw" depart="42.340733271794285" />
<vehicle id="type1_66" type="type1" route="ew" depart="42.70355702827272" />
<vehicle id="type1_67" type="type1" route="sw" depart="43.26893707006038" />
<vehicle id="type1_68" type="type1" route="ns" depart="43.453292832898285" />
<vehicle id="type1_69" type="type1" route="sn" depart="43.526907265926006" />
<vehicle id="type1_70" type="type1" route="ew" depart="43.82376013185431" />
<vehicle id="type1_71" type="type1" route="nw" depart="45.14637294958103" />
<vehicle id="type1_72" type="type1" route="es" depart="46.13267809707382" />
<vehicle id="type1_73" type="type1" route="sw" depart="46.97909425280273" />
<vehicle id="type1_74" type="type1" route="we" depart="48.409964800468984" />
<vehicle id="type1_75" type="type1" route="se" depart="48.612538660239004" />
<vehicle id="type1_76" type="type1" route="sw" depart="48.61945453136244" />
<vehicle id="type1_77" type="type1" route="wn" depart="50.44024759624443" />
<vehicle id="type1_78" type="type1" route="sn" depart="50.73912085774219" />
<vehicle id="type1_79" type="type1" route="en" depart="50.911148323468744" />
<vehicle id="type1_80" type="type1" route="sw" depart="51.14511002204512" />
<vehicle id="type1_81" type="type1" route="ew" depart="51.21397194521206" />
<vehicle id="type1_82" type="type1" route="en" depart="51.380967130713046" />
<vehicle id="type1_83" type="type1" route="ew" depart="51.70756458137267" />
<vehicle id="type1_84" type="type1" route="ne" depart="51.778689650292655" />
<vehicle id="type1_85" type="type1" route="ne" depart="51.92523540543627" />
<vehicle id="type1_86" type="type1" route="ew" depart="52.820678257936144" />
<vehicle id="type1_87" type="type1" route="se" depart="55.03385641335146" />
<vehicle id="type1_88" type="type1" route="we" depart="56.11626669672769" />
<vehicle id="type1_89" type="type1" route="ne" depart="57.15117462489288" />
<vehicle id="type1_90" type="type1" route="se" depart="57.56307700166308" />
<vehicle id="type1_91" type="type1" route="en" depart="59.3300669781452" />
<vehicle id="type1_92" type="type1" route="ws" depart="60.54071131086641" />
<vehicle id="type1_93" type="type1" route="sn" depart="61.578542571545526" />
<vehicle id="type1_94" type="type1" route="ns" depart="62.17473787414247" />
<vehicle id="type1_95" type="type1" route="ew" depart="62.181857331287915" />
<vehicle id="emv_4" type="rescue" route="sn" depart="62.27909469479924" />
<vehicle id="type1_96" type="type1" route="ne" depart="62.30205275622001" />
<vehicle id="type1_97" type="type1" route="ne" depart="62.751225050630076" />
<vehicle id="type1_98" type="type1" route="se" depart="63.17954640173627" />
<vehicle id="type1_99" type="type1" route="nw" depart="63.45218722036301" />
<vehicle id="type1_100" type="type1" route="wn" depart="63.58797471338817" />
<vehicle id="type1_101" type="type1" route="nw" depart="64.538305296082" />
<vehicle id="type1_102" type="type1" route="sw" depart="66.260861166798" />
<vehicle id="emv_5" type="rescue" route="en" depart="67.28874387635608" />
<vehicle id="type1_103" type="type1" route="es" depart="67.67135642631466" />
<vehicle id="type1_104" type="type1" route="en" depart="68.30521688325244" />
<vehicle id="emv_6" type="rescue" route="es" depart="69.09560625741207" />
<vehicle id="type1_105" type="type1" route="we" depart="69.09950452200405" />
<vehicle id="type1_106" type="type1" route="en" depart="69.66382660047582" />
<vehicle id="type1_107" type="type1" route="es" depart="69.74525843022177" />
<vehicle id="type1_108" type="type1" route="wn" depart="69.78911655536632" />
<vehicle id="type1_109" type="type1" route="sw" depart="69.86447093643463" />
<vehicle id="type1_110" type="type1" route="ws" depart="69.91988690463891" />
<vehicle id="type1_111" type="type1" route="ew" depart="73.96796623583154" />
<vehicle id="type1_112" type="type1" route="ne" depart="75.3505701008902" />
<vehicle id="type1_113" type="type1" route="nw" depart="76.07626308641204" />
<vehicle id="type1_114" type="type1" route="sn" depart="77.17153560665228" />
<vehicle id="type1_115" type="type1" route="ws" depart="77.81362040943166" />
<vehicle id="type1_116" type="type1" route="ne" depart="78.6270675356672" />
<vehicle id="type1_117" type="type1" route="ne" depart="79.82148343785866" />
<vehicle id="type1_118" type="type1" route="sn" depart="81.87017807441038" />
<vehicle id="type1_119" type="type1" route="nw" depart="82.47060492880783" />
<vehicle id="type1_120" type="type1" route="ne" depart="82.5166783381086" />
<vehicle id="type1_121" type="type1" route="ws" depart="83.87813055541568" />
<vehicle id="type1_122" type="type1" route="ws" depart="83.95220610679273" />
<vehicle id="type1_123" type="type1" route="wn" depart="85.73911023191069" />
<vehicle id="type1_124" type="type1" route="sw" depart="85.77105812353761" />
<vehicle id="type1_125" type="type1" route="es" depart="86.20812034604668" />
<vehicle id="type1_126" type="type1" route="we" depart="86.70020144240458" />
<vehicle id="type1_127" type="type1" route="ne" depart="87.57445993052363" />
<vehicle id="type1_128" type="type1" route="ns" depart="88.03190049817292" />
<vehicle id="type1_129" type="type1" route="es" depart="90.30338532489986" />
<vehicle id="type1_130" type="type1" route="es" depart="90.37852089984405" />
<vehicle id="type1_131" type="type1" route="ew" depart="91.55574895613391" />
<vehicle id="type1_132" type="type1" route="ne" depart="92.43899210573896" />
<vehicle id="type1_133" type="type1" route="nw" depart="92.84893802120104" />
<vehicle id="type1_134" type="type1" route="sw" depart="93.0934623694216" />
<vehicle id="type1_135" type="type1" route="ew" depart="93.33945679178238" />
<vehicle id="type1_136" type="type1" route="we" depart="93.54999353728499" />
<vehicle id="type1_137" type="type1" route="we" depart="94.05751350495504" />
<vehicle id="type1_138" type="type1" route="nw" depart="94.42709552613961" />
<vehicle id="type1_139" type="type1" route="we" depart="96.61540129673753" />
<vehicle id="type1_140" type="type1" route="ew" depart="96.96015906700647" />
<vehicle id="type1_141" type="type1" route="es" depart="97.26114794783429" />
<vehicle id="type1_142" type="type1" route="ne" depart="98.61894653101214" />
<vehicle id="type1_143" type="type1" route="es" depart="99.0737588607098" />
<vehicle id="type1_144" type="type1" route="wn" depart="99.51522828903484" />
<vehicle id="type1_145" type="type1" route="wn" depart="99.67334570219782" />
<vehicle id="type1_146" type="type1" route="sw" depart="99.82212470994638" />
<vehicle id="emv_7" type="rescue" route="ne" depart="100.08070703016182" />
<vehicle id="type1_147" type="type1" route="ws" depart="100.16483495840761" />
<vehicle id="type1_148" type="type1" route="ne" depart="100.24682362281823" />
<vehicle id="type1_149" type="type1" route="ns" depart="100.37639435649211" />
<vehicle id="type1_150" type="type1" route="sw" depart="101.32577508890058" />
<vehicle id="type1_151" type="type1" route="en" depart="101.38161621925885" />
<vehicle id="type1_152" type="type1" route="en" depart="102.61461719391454" />
<vehicle id="type1_153" type="type1" route="we" depart="103.67360750459922" />
<vehicle id="type1_154" type="type1" route="ew" depart="104.11511343233246" />
<vehicle id="type1_155" type="type1" route="ne" depart="104.56321302394291" />
<vehicle id="type1_156" type="type1" route="ew" depart="105.01077101284842" />
<vehicle id="type1_157" type="type1" route="sn" depart="106.7723713622656" />
<vehicle id="type1_158" type="type1" route="ne" depart="107.07168842000752" />
<vehicle id="type1_159" type="type1" route="we" depart="109.3406763574781" />
<vehicle id="type1_160" type="type1" route="en" depart="109.72233252591788" />
<vehicle id="type1_161" type="type1" route="ne" depart="110.73846310092824" />
<vehicle id="type1_162" type="type1" route="nw" depart="111.34928869534978" />
<vehicle id="emv_8" type="rescue" route="ne" depart="111.9834167174121" />
<vehicle id="type1_163" type="type1" route="ne" depart="112.5412909731587" />
<vehicle id="type1_164" type="type1" route="ew" depart="113.48937091229296" />
<vehicle id="type1_165" type="type1" route="ws" depart="113.65963611254712" />
<vehicle id="type1_166" type="type1" route="es" depart="113.73526236692189" />
<vehicle id="type1_167" type="type1" route="ws" depart="114.30177162246265" />
<vehicle id="type1_168" type="type1" route="ws" depart="114.52853703714081" />
<vehicle id="type1_169" type="type1" route="nw" depart="115.54845518787441" />
<vehicle id="emv_9" type="rescue" route="nw" depart="116.17207381083668" />
<vehicle id="type1_170" type="type1" route="ew" depart="116.47187950057528" />
<vehicle id="type1_171" type="type1" route="we" depart="120.05476045074161" />
<vehicle id="type1_172" type="type1" route="en" depart="121.51555603685496" />
<vehicle id="type1_173" type="type1" route="ew" depart="121.8374294049507" />
<vehicle id="type1_174" type="type1" route="wn" depart="122.19478812901696" />
<vehicle id="type1_175" type="type1" route="sw" depart="122.33267475245725" />
<vehicle id="type1_176" type="type1" route="en" depart="122.36469395237948" />
<vehicle id="emv_10" type="rescue" route="sn" depart="122.65980359493257" />
<vehicle id="type1_177" type="type1" route="ns" depart="123.30856659507853" />
<vehicle id="emv_11" type="rescue" route="sn" depart="123.36050305854009" />
<vehicle id="type1_178" type="type1" route="sn" depart="123.82103029639597" />
<vehicle id="type1_179" type="type1" route="sn" depart="124.75944663723122" />
<vehicle id="type1_180" type="type1" route="se" depart="125.0169546342225" />
<vehicle id="type1_181" type="type1" route="sn" depart="125.19641057262484" />
<vehicle id="type1_182" type="type1" route="we" depart="126.14396636696645" />
<vehicle id="type1_183" type="type1" route="es" depart="126.4276166681274" />
<vehicle id="type1_184" type="type1" route="sw" depart="128.01477901853912" />
<vehicle id="type1_185" type="type1" route="ns" depart="128.13092134793487" />
<vehicle id="type1_186" type="type1" route="wn" depart="131.1218533220434" />
<vehicle id="emv_12" type="rescue" route="ne" depart="132.31080564494363" />
<vehicle id="type1_187" type="type1" route="we" depart="132.78113993999472" />
<vehicle id="type1_188" type="type1" route="we" depart="133.62105757263402" />
<vehicle id="type1_189" type="type1" route="es" depart="133.76173212646162" />
<vehicle id="type1_190" type="type1" route="ne" depart="134.07590945869265" />
<vehicle id="type1_191" type="type1" route="nw" depart="134.50099789047854" />
<vehicle id="type1_192" type="type1" route="wn" depart="135.08909379711162" />
<vehicle id="type1_193" type="type1" route="we" depart="135.81183962504957" />
<vehicle id="emv_13" type="rescue" route="es" depart="136.64094978530278" />
<vehicle id="type1_194" type="type1" route="ne" depart="137.39135323432606" />
<vehicle id="type1_195" type="type1" route="sw" depart="138.33473899202406" />
<vehicle id="type1_196" type="type1" route="en" depart="138.50853329054186" />
<vehicle id="type1_197" type="type1" route="sw" depart="138.56601961289198" />
<vehicle id="type1_198" type="type1" route="ne" depart="139.5841423432875" />
<vehicle id="type1_199" type="type1" route="we" depart="139.73808630827853" />
<vehicle id="type1_200" type="type1" route="en" depart="141.4638860932543" />
<vehicle id="type1_201" type="type1" route="ws" depart="142.0469290403831" />
<vehicle id="type1_202" type="type1" route="en" depart="143.26472364815834" />
<vehicle id="type1_203" type="type1" route="ew" depart="143.66348486199962" />
<vehicle id="emv_14" type="rescue" route="ne" depart="144.04922807521848" />
<vehicle id="type1_204" type="type1" route="we" depart="145.3169963283738" />
<vehicle id="type1_205" type="type1" route="se" depart="145.34578120923902" />
<vehicle id="emv_15" type="rescue" route="se" depart="146.40997165794823" />
<vehicle id="type1_206" type="type1" route="wn" depart="146.88743443215728" />
<vehicle id="type1_207" type="type1" route="ne" depart="147.1975692754025" />
<vehicle id="type1_208" type="type1" route="nw" depart="147.2330346197588" />
<vehicle id="type1_209" type="type1" route="nw" depart="147.7539400317386" />
<vehicle id="type1_210" type="type1" route="ne" depart="149.1771764134299" />
<vehicle id="type1_211" type="type1" route="ns" depart="149.47208469500103" />
<vehicle id="type1_212" type="type1" route="ns" depart="149.4935352000234" />
<vehicle id="type1_213" type="type1" route="sn" depart="149.8800790347801" />
<vehicle id="type1_214" type="type1" route="ns" depart="149.98501917528" />
<vehicle id="type1_215" type="type1" route="we" depart="150.6111871466333" />
<vehicle id="type1_216" type="type1" route="sn" depart="151.34197360795795" />
<vehicle id="type1_217" type="type1" route="ew" depart="152.32390110431558" />
<vehicle id="emv_16" type="rescue" route="sw" depart="152.51256045173642" />
<vehicle id="type1_218" type="type1" route="se" depart="152.74041681349564" />
<vehicle id="type1_219" type="type1" route="wn" depart="153.11023291866937" />
<vehicle id="type1_220" type="type1" route="en" depart="153.51283349794423" />
<vehicle id="type1_221" type="type1" route="ne" depart="156.81185716015887" />
<vehicle id="type1_222" type="type1" route="ws" depart="158.13252167151998" />
<vehicle id="type1_223" type="type1" route="ew" depart="158.22533294872036" />
<vehicle id="type1_224" type="type1" route="sw" depart="158.29156664248882" />
<vehicle id="type1_225" type="type1" route="ew" depart="158.60493984847213" />
<vehicle id="type1_226" type="type1" route="ns" depart="159.96988123906564" />
<vehicle id="type1_227" type="type1" route="nw" depart="161.75155102992684" />
<vehicle id="type1_228" type="type1" route="es" depart="163.2176805348403" />
<vehicle id="type1_229" type="type1" route="sn" depart="163.40505289540044" />
<vehicle id="type1_230" type="type1" route="sw" depart="164.09884873144478" />
<vehicle id="type1_231" type="type1" route="en" depart="165.55401717221662" />
<vehicle id="type1_232" type="type1" route="sn" depart="165.94910054101507" />
<vehicle id="type1_233" type="type1" route="we" depart="167.37686199327126" />
<vehicle id="type1_234" type="type1" route="es" depart="168.92383398267327" />
<vehicle id="type1_235" type="type1" route="nw" depart="169.27414117696605" />
<vehicle id="type1_236" type="type1" route="we" depart="169.71471282741666" />
<vehicle id="type1_237" type="type1" route="sn" depart="170.05524600065743" />
<vehicle id="type1_238" type="type1" route="se" depart="170.07870326700524" />
<vehicle id="type1_239" type="type1" route="en" depart="170.23698960450824" />
<vehicle id="type1_240" type="type1" route="wn" depart="173.89944091421947" />
<vehicle id="type1_241" type="type1" route="ew" depart="174.48519678138237" />
<vehicle id="type1_242" type="type1" route="we" depart="175.03151674757535" />
<vehicle id="type1_243" type="type1" route="es" depart="175.66225640189901" />
<vehicle id="type1_244" type="type1" route="sn" depart="175.77406458335608" />
<vehicle id="type1_245" type="type1" route="nw" depart="176.47336897074933" />
<vehicle id="type1_246" type="type1" route="sw" depart="176.47966694926964" />
<vehicle id="type1_247" type="type1" route="ne" depart="176.48075806264166" />
<vehicle id="type1_248" type="type1" route="ws" depart="178.11242818662308" />
<vehicle id="type1_249" type="type1" route="se" depart="178.1359712070009" />
<vehicle id="type1_250" type="type1" route="nw" depart="180.16866771424802" />
<vehicle id="type1_251" type="type1" route="we" depart="180.65262475538395" />
<vehicle id="type1_252" type="type1" route="ne" depart="180.86795680583964" />
<vehicle id="type1_253" type="type1" route="ws" depart="180.91231253144895" />
<vehicle id="type1_254" type="type1" route="ns" depart="181.08329836324683" />
<vehicle id="type1_255" type="type1" route="ew" depart="181.50459590526572" />
<vehicle id="type1_256" type="type1" route="ws" depart="182.14427486530334" />
<vehicle id="emv_17" type="rescue" route="ns" depart="183.41713593404108" />
<vehicle id="type1_257" type="type1" route="ws" depart="184.27829145265136" />
<vehicle id="type1_258" type="type1" route="we" depart="185.2529519319654" />
<vehicle id="type1_259" type="type1" route="we" depart="185.6654590814172" />
<vehicle id="type1_260" type="type1" route="sn" depart="185.7009164029312" />
<vehicle id="type1_261" type="type1" route="se" depart="185.71055617797282" />
<vehicle id="type1_262" type="type1" route="ns" depart="186.0924647448699" />
<vehicle id="type1_263" type="type1" route="se" depart="186.19423789983594" />
<vehicle id="type1_264" type="type1" route="sn" depart="186.228527762654" />
<vehicle id="type1_265" type="type1" route="nw" depart="186.60174354739252" />
<vehicle id="type1_266" type="type1" route="ns" depart="188.26468330332403" />
<vehicle id="type1_267" type="type1" route="nw" depart="188.68950426035798" />
<vehicle id="type1_268" type="type1" route="wn" depart="188.8637590715616" />
<vehicle id="type1_269" type="type1" route="se" depart="189.46971318352044" />
<vehicle id="type1_270" type="type1" route="ew" depart="189.57730782114646" />
<vehicle id="type1_271" type="type1" route="nw" depart="190.17933275406273" />
<vehicle id="type1_272" type="type1" route="ne" depart="192.6634510196393" />
<vehicle id="type1_273" type="type1" route="sw" depart="193.39384375546163" />
<vehicle id="type1_274" type="type1" route="wn" depart="193.40026450728374" />
<vehicle id="type1_275" type="type1" route="ns" depart="193.6010730915675" />
<vehicle id="type1_276" type="type1" route="ns" depart="197.30482381989603" />
<vehicle id="type1_277" type="type1" route="es" depart="197.41594736917472" />
<vehicle id="type1_278" type="type1" route="ws" depart="198.5920339554994" />
<vehicle id="type1_279" type="type1" route="nw" depart="200.40533197578145" />
<vehicle id="type1_280" type="type1" route="ew" depart="200.6831794425562" />
<vehicle id="type1_281" type="type1" route="sw" depart="200.68420344186939" />
<vehicle id="type1_282" type="type1" route="sn" depart="201.04542032273164" />
<vehicle id="type1_283" type="type1" route="wn" depart="201.1669569368469" />
<vehicle id="type1_284" type="type1" route="sw" depart="201.36858299026167" />
<vehicle id="type1_285" type="type1" route="we" depart="202.51199577606204" />
<vehicle id="type1_286" type="type1" route="se" depart="203.45951305088465" />
<vehicle id="type1_287" type="type1" route="ne" depart="204.7217055221552" />
<vehicle id="type1_288" type="type1" route="en" depart="205.21272427022822" />
<vehicle id="type1_289" type="type1" route="ne" depart="205.65901166993228" />
<vehicle id="type1_290" type="type1" route="sw" depart="206.11926184541764" />
<vehicle id="type1_291" type="type1" route="nw" depart="206.67775636659235" />
<vehicle id="type1_292" type="type1" route="sn" depart="208.56918007381404" />
<vehicle id="type1_293" type="type1" route="en" depart="210.95316693579713" />
<vehicle id="type1_294" type="type1" route="sn" depart="210.99191976065708" />
<vehicle id="type1_295" type="type1" route="en" depart="214.30107806505802" />
<vehicle id="type1_296" type="type1" route="ne" depart="215.57127535919182" />
<vehicle id="type1_297" type="type1" route="ne" depart="215.6116630704737" />
<vehicle id="type1_298" type="type1" route="wn" depart="215.96862855400693" />
<vehicle id="type1_299" type="type1" route="sn" depart="216.3795753403103" />
<vehicle id="type1_300" type="type1" route="se" depart="217.82581477647727" />
<vehicle id="type1_301" type="type1" route="en" depart="218.0297210739268" />
<vehicle id="type1_302" type="type1" route="se" depart="219.53329912307817" />
<vehicle id="type1_303" type="type1" route="ws" depart="219.59103076488614" />
<vehicle id="type1_304" type="type1" route="we" depart="220.306321993576" />
<vehicle id="type1_305" type="type1" route="sn" depart="221.2874031402931" />
<vehicle id="type1_306" type="type1" route="ew" depart="221.6229403851472" />
<vehicle id="type1_307" type="type1" route="sw" depart="221.64466179066017" />
<vehicle id="type1_308" type="type1" route="ns" depart="222.09300497348138" />
<vehicle id="type1_309" type="type1" route="ws" depart="224.256775661889" />
<vehicle id="type1_310" type="type1" route="ws" depart="224.84173452411002" />
<vehicle id="emv_18" type="rescue" route="we" depart="224.9411097636796" />
<vehicle id="type1_311" type="type1" route="wn" depart="225.04762130711615" />
<vehicle id="type1_312" type="type1" route="wn" depart="225.20866601948376" />
<vehicle id="type1_313" type="type1" route="ns" depart="227.17061539268786" />
<vehicle id="emv_19" type="rescue" route="ns" depart="227.23370253086895" />
<vehicle id="type1_314" type="type1" route="ew" depart="228.61501999419298" />
<vehicle id="type1_315" type="type1" route="sw" depart="229.5580026080693" />
<vehicle id="type1_316" type="type1" route="en" depart="230.31192749940644" />
<vehicle id="emv_20" type="rescue" route="en" depart="230.51664222563218" />
<vehicle id="type1_317" type="type1" route="wn" depart="231.59569946696752" />
<vehicle id="type1_318" type="type1" route="ew" depart="234.04920390658833" />
<vehicle id="type1_319" type="type1" route="es" depart="235.16553906905966" />
<vehicle id="type1_320" type="type1" route="ns" depart="235.69001198400332" />
<vehicle id="type1_321" type="type1" route="sw" depart="236.32074881338812" />
<vehicle id="type1_322" type="type1" route="ws" depart="236.35616456219824" />
<vehicle id="type1_323" type="type1" route="wn" depart="236.48327754013346" />
<vehicle id="type1_324" type="type1" route="ne" depart="236.82569174829" />
<vehicle id="type1_325" type="type1" route="nw" depart="237.35205875448534" />
<vehicle id="type1_326" type="type1" route="wn" depart="238.98041713839766" />
<vehicle id="type1_327" type="type1" route="es" depart="239.01776127232839" />
<vehicle id="emv_21" type="rescue" route="sn" depart="240.93571293612877" />
<vehicle id="type1_328" type="type1" route="ew" depart="242.91414156245713" />
<vehicle id="type1_329" type="type1" route="nw" depart="245.32305128500786" />
<vehicle id="emv_22" type="rescue" route="ns" depart="246.8779922514431" />
<vehicle id="emv_23" type="rescue" route="sw" depart="247.7002629690675" />
<vehicle id="type1_330" type="type1" route="sw" depart="248.88563155687865" />
<vehicle id="type1_331" type="type1" route="we" depart="249.40590731334464" />
<vehicle id="type1_332" type="type1" route="en" depart="250.27820980612535" />
<vehicle id="type1_333" type="type1" route="sn" depart="251.50436657178065" />
<vehicle id="type1_334" type="type1" route="es" depart="252.26872524385828" />
<vehicle id="type1_335" type="type1" route="wn" depart="254.49597521141374" />
<vehicle id="type1_336" type="type1" route="wn" depart="255.0637690792805" />
<vehicle id="type1_337" type="type1" route="we" depart="255.64063157310983" />
<vehicle id="type1_338" type="type1" route="ws" depart="255.9943876199037" />
<vehicle id="type1_339" type="type1" route="wn" depart="257.107044792945" />
<vehicle id="type1_340" type="type1" route="se" depart="257.1532291728644" />
<vehicle id="type1_341" type="type1" route="ew" depart="257.82536229273813" />
<vehicle id="type1_342" type="type1" route="es" depart="260.275534211387" />
<vehicle id="type1_343" type="type1" route="sn" depart="261.72713706783827" />