<routes>
            <vType id="type1" accel="0.8" decel="4.5" sigma="0.5" length="5" maxSpeed="70"/>
            <vType id="rescue" vClass="emergency" speedFactor="1.5" guiShape="emergency">
                <param key="has.bluelight.device" value="true"/>
            </vType>
            <route id="ne" edges="ni eo"/>
            <route id="ns" edges="ni so"/>
            <route id="nw" edges="ni wo"/>
            <route id="en" edges="ei no"/>
            <route id="es" edges="ei so"/>
            <route id="ew" edges="ei wo"/>
            <route id="sn" edges="si no"/>
            <route id="se" edges="si eo"/>
            <route id="sw" edges="si wo"/>
            <route id="wn" edges="wi no"/>
            <route id="we" edges="wi eo"/>
            <route id="ws" edges="wi so"/>
        
            <personFlow id="p_we" begin="0" end="600" period="50">
                <walk route="we"/>
            </personFlow>
                         
            <personFlow id="p_ns" begin="0" end="600" period="50">
                <walk route="ns"/>
            </personFlow>
                         
            <personFlow id="p_sn" begin="0" end="600" period="50">
                <walk route="sn"/>
            </personFlow>
                         
            <personFlow id="p_ew" begin="0" end="600" period="50">
                <walk route="ew"/>
            </personFlow>
                         <vehicle id="type1_1" type="type1" route="ns" depart="0.1713844718807191" />
<vehicle id="type1_2" type="type1" route="ws" depart="0.21361947565727715" />
<vehicle id="type1_3" type="type1" route="we" depart="1.741544299621503" />
<vehicle id="type1_4" type="type1" route="ew" depart="2.032550839651017" />
<vehicle id="type1_5" type="type1" route="es" depart="2.199787786623451" />
<vehicle id="type1_6" type="type1" route="we" depart="3.0462560011770843" />
<vehicle id="type1_7" type="type1" route="wn" depart="3.1773466992232975" />
<vehicle id="type1_8" type="type1" route="we" depart="4.110272378326204" />
<vehicle id="type1_9" type="type1" route="wn" depart="4.421268051439069" />
<vehicle id="type1_10" type="type1" route="ew" depart="4.778711422936399" />
<vehicle id="type1_11" type="type1" route="en" depart="5.621332464417958" />
<vehicle id="type1_12" type="type1" route="es" depart="7.127403894015873" />
<vehicle id="type1_13" type="type1" route="ns" depart="7.863886362003786" />
<vehicle id="type1_14" type="type1" route="ne" depart="7.973380223995084" />
<vehicle id="emv_1" type="rescue" route="es" depart="8.197971603295418" />
<vehicle id="type1_15" type="type1" route="ns" depart="8.263590632267706" />
<vehicle id="type1_16" type="type1" route="es" depart="9.410010727015717" />
<vehicle id="type1_17" type="type1" route="ws" depart="10.182793090001644" />
<vehicle id="type1_18" type="type1" route="nw" depart="11.691746734968861" />
<vehicle id="type1_19" type="type1" route="sn" depart="12.39261304720476" />
<vehicle id="type1_20" type="type1" route="en" depart="13.790522752687993" />
<vehicle id="type1_21" type="type1" route="es" depart="13.82936475451909" />
<vehicle id="type1_22" type="type1" route="we" depart="14.710574986506384" />
<vehicle id="type1_23" type="type1" route="ns" depart="14.948807645909046" />
<vehicle id="type1_24" type="type1" route="en" depart="15.501663176337402" />
<vehicle id="type1_25" type="type1" route="wn" depart="15.92947449445429" />
<vehicle id="type1_26" type="type1" route="ne" depart="16.07838768115359" />
<vehicle id="type1_27" type="type1" route="wn" depart="16.108395515358584" />
<vehicle id="type1_28" type="type1" route="wn" depart="16.765460488667486" />
<vehicle id="type1_29" type="type1" route="ws" depart="18.42026173299637" />
<vehicle id="type1_30" type="type1" route="ne" depart="19.005890503919403" />
<vehicle id="emv_2" type="rescue" route="nw" depart="19.09323969363066" />
<vehicle id="type1_31" type="type1" route="ns" depart="19.91853023717123" />
<vehicle id="type1_32" type="type1" route="ns" depart="25.487596513261437" />
<vehicle id="type1_33" type="type1" route="ne" depart="25.842884693551387" />
<vehicle id="type1_34" type="type1" route="ew" depart="25.892703889245325" />
<vehicle id="type1_35" type="type1" route="nw" depart="26.105394854860638" />
<vehicle id="type1_36" type="type1" route="es" depart="26.362167498250788" />
<vehicle id="type1_37" type="type1" route="en" depart="26.378199755476246" />
<vehicle id="type1_38" type="type1" route="sw" depart="28.621668916549133" />
<vehicle id="type1_39" type="type1" route="es" depart="28.78009674844299" />
<vehicle id="type1_40" type="type1" route="es" depart="28.966073081718203" />
<vehicle id="type1_41" type="type1" route="se" depart="29.202102290244852" />
<vehicle id="emv_3" type="rescue" route="ws" depart="31.26111673094391" />
<vehicle id="type1_42" type="type1" route="we" depart="31.382585965287582" />
<vehicle id="type1_43" type="type1" route="nw" depart="31.55421057977089" />
<vehicle id="type1_44" type="type1" route="nw" depart="31.595455272613314" />
<vehicle id="type1_45" type="type1" route="sw" depart="31.95998910515904" />
<vehicle id="type1_46" type="type1" route="ew" depart="32.37992562597291" />
<vehicle id="type1_47" type="type1" route="nw" depart="33.18239502947279" />
<vehicle id="emv_4" type="rescue" route="ws" depart="33.462999702419914" />
<vehicle id="type1_48" type="type1" route="ne" depart="33.62195617786531" />
<vehicle id="type1_49" type="type1" route="wn" depart="33.96048677973004" />
<vehicle id="type1_50" type="type1" route="ew" depart="34.53588998943505" />
<vehicle id="type1_51" type="type1" route="sw" depart="35.02730541930682" />
<vehicle id="type1_52" type="type1" route="wn" depart="35.26771982533061" />
<vehicle id="type1_53" type="type1" route="ws" depart="36.472594098095975" />
<vehicle id="type1_54" type="type1" route="se" depart="36.53675833352776" />
<vehicle id="type1_55" type="type1" route="en" depart="36.57775023404183" />
<vehicle id="type1_56" type="type1" route="sw" depart="36.58960180004964" />
<vehicle id="type1_57" type="type1" route="sw" depart="37.75677573191972" />
<vehicle id="type1_58" type="type1" route="sn" depart="38.461612658913424" />
<vehicle id="type1_59" type="type1" route="ne" depart="39.07726403470989" />
<vehicle id="type1_60" type="type1" route="se" depart="39.471731303277565" />
<vehicle id="type1_61" type="type1" route="ns" depart="39.70373589663206" />
<vehicle id="type1_62" type="type1" route="we" depart="40.35210838120101" />
<vehicle id="type1_63" type="type1" route="en" depart="40.40076490371508" />
<vehicle id="type1_64" type="type1" route="wn" depart="41.29290781491146" />
<vehicle id="emv_5" type="rescue" route="en" depart="41.8150891169513" />
<vehicle id="type1_65" type="type1" route="se" depart="41.93517771830383" />
<vehicle id="type1_66" type="type1" route="sn" depart="42.61628968763551" />
<vehicle id="type1_67" type="type1" route="sw" depart="42.92279797423715" />
<vehicle id="type1_68" type="type1" route="sn" depart="44.65415840529228" />
<vehicle id="emv_6" type="rescue" route="ns" depart="44.85916728216846" />
<vehicle id="type1_69" type="type1" route="sn" depart="44.97598491226683" />
<vehicle id="type1_70" type="type1" route="en" depart="46.31605449045082" />
<vehicle id="type1_71" type="type1" route="ew" depart="47.02251317336448" />
<vehicle id="type1_72" type="type1" route="es" depart="47.2330407280541" />
<vehicle id="type1_73" type="type1" route="sn" depart="47.47658308295834" />
<vehicle id="type1_74" type="type1" route="sn" depart="48.59729132570989" />
<vehicle id="type1_75" type="type1" route="wn" depart="48.64122226822224" />
<vehicle id="type1_76" type="type1" route="wn" depart="49.174224142142066" />
<vehicle id="type1_77" type="type1" route="ne" depart="50.35648748047741" />
<vehicle id="type1_78" type="type1" route="nw" depart="51.122929552746776" />
<vehicle id="type1_79" type="type1" route="es" depart="51.75428485047903" />
<vehicle id="type1_80" type="type1" route="we" depart="52.37615116992559" />
<vehicle id="type1_81" type="type1" route="we" depart="55.25235865254409" />
<vehicle id="type1_82" type="type1" route="ns" depart="56.31651080779264" />
<vehicle id="type1_83" type="type1" route="ne" depart="56.38787136792492" />
<vehicle id="type1_84" type="type1" route="en" depart="58.871798663371855" />
<vehicle id="type1_85" type="type1" route="we" depart="62.99048148629028" />
<vehicle id="type1_86" type="type1" route="ew" depart="63.129711207604586" />
<vehicle id="emv_7" type="rescue" route="wn" depart="63.30710179456177" />
<vehicle id="type1_87" type="type1" route="ne" depart="63.73666832033963" />
<vehicle id="type1_88" type="type1" route="sn" depart="65.23785007690337" />
<vehicle id="type1_89" type="type1" route="ns" depart="65.2832603381804" />
<vehicle id="type1_90" type="type1" route="en" depart="65.35760725200896" />
<vehicle id="type1_91" type="type1" route="ew" depart="65.62321493240496" />
<vehicle id="type1_92" type="type1" route="we" depart="67.86821707396584" />
<vehicle id="type1_93" type="type1" route="ws" depart="68.42859759520982" />
<vehicle id="type1_94" type="type1" route="ne" depart="68.8889480027317" />
<vehicle id="type1_95" type="type1" route="sn" depart="69.31138281746004" />
<vehicle id="type1_96" type="type1" route="nw" depart="69.5403965091194" />
<vehicle id="type1_97" type="type1" route="ns" depart="69.90320429835194" />
<vehicle id="type1_98" type="type1" route="sw" depart="70.51639148443124" />
<vehicle id="type1_99" type="type1" route="se" depart="70.52626121843399" />
<vehicle id="type1_100" type="type1" route="we" depart="70.68747463309302" />
<vehicle id="type1_101" type="type1" route="es" depart="71.46109102924346" />
<vehicle id="type1_102" type="type1" route="ne" depart="71.513387957114" />
<vehicle id="type1_103" type="type1" route="ns" depart="71.83140287948918" />
<vehicle id="type1_104" type="type1" route="we" depart="72.10824973206822" />
<vehicle id="type1_105" type="type1" route="es" depart="73.50188071996345" />
<vehicle id="type1_106" type="type1" route="se" depart="74.33240740678343" />
<vehicle id="type1_107" type="type1" route="nw" depart="74.81890429212767" />
<vehicle id="type1_108" type="type1" route="we" depart="75.4506973056657" />
<vehicle id="emv_8" type="rescue" route="es" depart="75.73893902266322" />
<vehicle id="type1_109" type="type1" route="wn" depart="76.86529287884154" />
<vehicle id="type1_110" type="type1" route="wn" depart="77.3603598001883" />
<vehicle id="type1_111" type="type1" route="sn" depart="77.3742779168265" />
<vehicle id="type1_112" type="type1" route="ew" depart="77.87188011342126" />
<vehicle id="type1_113" type="type1" route="ns" depart="78.16587556510677" />
<vehicle id="type1_114" type="type1" route="sn" depart="78.5884702846859" />
<vehicle id="emv_9" type="rescue" route="we" depart="80.15885548566622" />
<vehicle id="type1_115" type="type1" route="ew" depart="80.8602163823732" />
<vehicle id="type1_116" type="type1" route="wn" depart="82.43620675843907" />
<vehicle id="type1_117" type="type1" route="wn" depart="82.94112031553517" />
<vehicle id="type1_118" type="type1" route="we" depart="84.1453308309482" />
<vehicle id="type1_119" type="type1" route="ns" depart="84.71842899823092" />
<vehicle id="type1_120" type="type1" route="ns" depart="85.0533405483164" />
<vehicle id="type1_121" type="type1" route="ns" depart="85.71918035188052" />
<vehicle id="type1_122" type="type1" route="en" depart="86.09797242104317" />
<vehicle id="type1_123" type="type1" route="we" depart="86.47284076619964" />
<vehicle id="emv_10" type="rescue" route="en" depart="86.60407036765356" />
<vehicle id="type1_124" type="type1" route="sn" depart="87.30260094202136" />
<vehicle id="type1_125" type="type1" route="sn" depart="89.54423227547778" />
<vehicle id="type1_126" type="type1" route="ne" depart="90.50777413996421" />
<vehicle id="type1_127" type="type1" route="ne" depart="90.7744006155405" />
<vehicle id="type1_128" type="type1" route="se" depart="92.72666647584361" />
<vehicle id="emv_11" type="rescue" route="ne" depart="93.16980405167641" />
<vehicle id="type1_129" type="type1" route="ne" depart="94.95718482088964" />
<vehicle id="type1_130" type="type1" route="sw" depart="95.04466957105453" />
<vehicle id="type1_131" type="type1" route="es" depart="95.54792478301243" />
<vehicle id="type1_132" type="type1" route="en" depart="96.40402898785739" />
<vehicle id="type1_133" type="type1" route="wn" depart="97.39312033667106" />
<vehicle id="type1_134" type="type1" route="es" depart="98.12395340697937" />
<vehicle id="type1_135" type="type1" route="ew" depart="98.32703597388122" />
<vehicle id="type1_136" type="type1" route="se" depart="99.13811572092304" />
<vehicle id="type1_137" type="type1" route="ew" depart="99.60533119480343" />
<vehicle id="emv_12" type="rescue" route="sw" depart="99.89346776445772" />
<vehicle id="type1_138" type="type1" route="se" depart="100.11841262238481" />
<vehicle id="type1_139" type="type1" route="wn" depart="102.5251056621532" />
<vehicle id="type1_140" type="type1" route="sn" depart="102.54425987528761" />
<vehicle id="type1_141" type="type1" route="sn" depart="104.91571728902794" />
<vehicle id="type1_142" type="type1" route="we" depart="105.32655309507584" />
<vehicle id="type1_143" type="type1" route="sn" depart="105.52490488443813" />
<vehicle id="type1_144" type="type1" route="we" depart="105.64641656283354" />
<vehicle id="type1_145" type="type1" route="ne" depart="106.3077295824402" />
<vehicle id="type1_146" type="type1" route="sn" depart="107.50411122820185" />
<vehicle id="emv_13" type="rescue" route="we" depart="107.87211441613628" />
<vehicle id="type1_147" type="type1" route="ns" depart="107.98792000779186" />
<vehicle id="type1_148" type="type1" route="sw" depart="108.02347473698413" />
<vehicle id="type1_149" type="type1" route="ns" depart="108.14083647444951" />
<vehicle id="type1_150" type="type1" route="se" depart="110.27763655813803" />
<vehicle id="type1_151" type="type1" route="es" depart="110.42303681257776" />
<vehicle id="type1_152" type="type1" route="sw" depart="110.95890477398446" />
<vehicle id="type1_153" type="type1" route="es" depart="111.47346384557157" />
<vehicle id="type1_154" type="type1" route="se" depart="112.20872486443713" />
<vehicle id="type1_155" type="type1" route="sw" depart="113.01152577232416" />
<vehicle id="type1_156" type="type1" route="sw" depart="113.59165024718462" />
<vehicle id="type1_157" type="type1" route="ew" depart="118.65126188194768" />
<vehicle id="type1_158" type="type1" route="sw" depart="118.67753808317275" />
<vehicle id="type1_159" type="type1" route="sn" depart="120.573425799022" />
<vehicle id="type1_160" type="type1" route="ne" depart="121.61359047141707" />
<vehicle id="type1_161" type="type1" route="we" depart="121.89583455821528" />
<vehicle id="type1_162" type="type1" route="wn" depart="122.05831867708994" />
<vehicle id="type1_163" type="type1" route="wn" depart="122.13053959184577" />
<vehicle id="type1_164" type="type1" route="we" depart="124.89879607485307" />
<vehicle id="type1_165" type="type1" route="ew" depart="125.35210496188516" />
<vehicle id="type1_166" type="type1" route="sn" depart="125.47752080296358" />
<vehicle id="type1_167" type="type1" route="ns" depart="125.56374847272396" />
<vehicle id="type1_168" type="type1" route="nw" depart="126.55857411732794" />
<vehicle id="type1_169" type="type1" route="ns" depart="127.0409250395538" />
<vehicle id="type1_170" type="type1" route="wn" depart="128.21928844218687" />
<vehicle id="type1_171" type="type1" route="we" depart="132.1226857606405" />
<vehicle id="type1_172" type="type1" route="sn" depart="132.74776300243647" />
<vehicle id="type1_173" type="type1" route="ne" depart="133.52377089501135" />
<vehicle id="type1_174" type="type1" route="se" depart="133.82027707448742" />
<vehicle id="type1_175" type="type1" route="ns" depart="133.8858345598115" />
<vehicle id="type1_176" type="type1" route="sw" depart="133.9453767207779" />
<vehicle id="type1_177" type="type1" route="sn" depart="134.19510483262064" />
<vehicle id="type1_178" type="type1" route="en" depart="135.05900107939024" />
<vehicle id="type1_179" type="type1" route="sw" depart="135.19854594134992" />
<vehicle id="type1_180" type="type1" route="we" depart="136.16427727418437" />
<vehicle id="type1_181" type="type1" route="wn" depart="136.93296402495164" />
<vehicle id="type1_182" type="type1" route="ne" depart="137.90730034088625" />
<vehicle id="type1_183" type="type1" route="nw" depart="138.08254624758584" />
<vehicle id="type1_184" type="type1" route="en" depart="138.30508524978083" />
<vehicle id="type1_185" type="type1" route="en" depart="139.61400266298054" />
<vehicle id="type1_186" type="type1" route="ne" depart="143.6375489165796" />
<vehicle id="type1_187" type="type1" route="es" depart="144.32490565377785" />
<vehicle id="type1_188" type="type1" route="se" depart="144.9639005644704" />
<vehicle id="type1_189" type="type1" route="nw" depart="145.2343044382508" />
<vehicle id="type1_190" type="type1" route="we" depart="145.49936560601714" />
<vehicle id="type1_191" type="type1" route="en" depart="145.90374549967405" />
<vehicle id="type1_192" type="type1" route="we" depart="146.09271383712772" />
<vehicle id="type1_193" type="type1" route="ew" depart="146.14372164335998" />
<vehicle id="type1_194" type="type1" route="es" depart="146.15438139629796" />
<vehicle id="type1_195" type="type1" route="sw" depart="146.4840993986833" />
<vehicle id="type1_196" type="type1" route="ns" depart="146.5515920670763" />
<vehicle id="type1_197" type="type1" route="es" depart="148.39855907834357" />
<vehicle id="type1_198" type="type1" route="en" depart="148.4897103621336" />
<vehicle id="type1_199" type="type1" route="sn" depart="149.3832694006702" />
<vehicle id="type1_200" type="type1" route="ew" depart="149.73689806038365" />
<vehicle id="type1_201" type="type1" route="ws" depart="149.95288208371423" />
<vehicle id="type1_202" type="type1" route="wn" depart="149.97607463142648" />
<vehicle id="type1_203" type="type1" route="ew" depart="150.3022499351801" />
<vehicle id="type1_204" type="type1" route="ne" depart="155.52603326153772" />
<vehicle id="type1_205" type="type1" route="ns" depart="155.52981761842935" />
<vehicle id="type1_206" type="type1" route="ne" depart="156.08862678067078" />
<vehicle id="type1_207" type="type1" route="sn" depart="156.15388495940874" />
<vehicle id="type1_208" type="type1" route="wn" depart="156.2420500724485" />
<vehicle id="type1_209" type="type1" route="ne" depart="157.74253316660855" />
<vehicle id="type1_210" type="type1" route="wn" depart="157.81212370317712" />
<vehicle id="type1_211" type="type1" route="ws" depart="158.71111119966366" />
<vehicle id="type1_212" type="type1" route="se" depart="158.84587721558606" />
<vehicle id="type1_213" type="type1" route="se" depart="159.12667188212274" />
<vehicle id="type1_214" type="type1" route="es" depart="159.47083781890237" />
<vehicle id="type1_215" type="type1" route="sn" depart="163.49080131911708" />
<vehicle id="type1_216" type="type1" route="ws" depart="164.93231894990808" />
<vehicle id="type1_217" type="type1" route="nw" depart="165.51055038070726" />
<vehicle id="type1_218" type="type1" route="ne" depart="166.9865536547741" />
<vehicle id="type1_219" type="type1" route="ne" depart="167.60405573987967" />
<vehicle id="type1_220" type="type1" route="ew" depart="168.13973411417564" />
<vehicle id="type1_221" type="type1" route="we" depart="168.61867426065743" />
<vehicle id="type1_222" type="type1" route="nw" depart="169.11584492762762" />
<vehicle id="type1_223" type="type1" route="wn" depart="169.20702076403762" />
<vehicle id="type1_224" type="type1" route="ws" depart="169.67903100362219" />
<vehicle id="type1_225" type="type1" route="nw" depart="170.43415119580072" />
<vehicle id="type1_226" type="type1" route="ew" depart="170.4518238301453" />
<vehicle id="type1_227" type="type1" route="ew" depart="171.22029780335257" />
<vehicle id="type1_228" type="type1" route="ns" depart="171.29499455183367" />
<vehicle id="emv_14" type="rescue" route="ew" depart="171.3308704087903" />
<vehicle id="type1_229" type="type1" route="sn" depart="173.3556311734197" />
<vehicle id="type1_230" type="type1" route="we" depart="173.45215411037853" />
<vehicle id="type1_231" type="type1" route="ns" depart="174.00018970899396" />
<vehicle id="type1_232" type="type1" route="wn" depart="174.8200002755411" />
<vehicle id="type1_233" type="type1" route="en" depart="176.1788662266649" />
<vehicle id="type1_234" type="type1" route="ew" depart="176.7033336681127" />
<vehicle id="type1_235" type="type1" route="we" depart="177.40337059279764" />
<vehicle id="emv_15" type="rescue" route="we" depart="178.78527872160018" />
<vehicle id="type1_236" type="type1" route="en" depart="179.94474009398886" />
<vehicle id="type1_237" type="type1" route="sw" depart="181.00112309887356" />
<vehicle id="type1_238" type="type1" route="nw" depart="181.71455601395476" />
<vehicle id="type1_239" type="type1" route="sn" depart="182.52484986577088" />
<vehicle id="type1_240" type="type1" route="sn" depart="182.6486455475716" />
<vehicle id="type1_241" type="type1" route="ns" depart="182.77247068199364" />
<vehicle id="type1_242" type="type1" route="sn" depart="183.02344690989207" />
<vehicle id="type1_243" type="type1" route="se" depart="183.81734919879045" />
<vehicle id="type1_244" type="type1" route="ew" depart="183.89353929326742" />
<vehicle id="type1_245" type="type1" route="es" depart="186.0672755216196" />
<vehicle id="type1_246" type="type1" route="we" depart="187.50987856899616" />
<vehicle id="type1_247" type="type1" route="se" depart="187.61638332588296" />
<vehicle id="type1_248" type="type1" route="es" depart="187.66019936433202" />
<vehicle id="type1_249" type="type1" route="ew" depart="188.40865576588314" />
<vehicle id="type1_250" type="type1" route="en" depart="188.61215223266592" />
<vehicle id="type1_251" type="type1" route="ns" depart="188.92046291782876" />
<vehicle id="type1_252" type="type1" route="ew" depart="189.07883903722538" />
<vehicle id="type1_253" type="type1" route="ns" depart="189.11378280338553" />
<vehicle id="type1_254" type="type1" route="es" depart="189.72626610293804" />
<vehicle id="type1_255" type="type1" route="sn" depart="190.08920063892572" />
<vehicle id="emv_16" type="rescue" route="sw" depart="190.2799179985589" />
<vehicle id="type1_256" type="type1" route="nw" depart="191.55325765970395" />
<vehicle id="type1_257" type="type1" route="ew" depart="191.8384637926007" />
<vehicle id="type1_258" type="type1" route="ew" depart="192.33670408506674" />
<vehicle id="type1_259" type="type1" route="sw" depart="193.0663024803594" />
<vehicle id="type1_260" type="type1" route="nw" depart="193.26259788411963" />
<vehicle id="type1_261" type="type1" route="se" depart="193.63905418666243" />
<vehicle id="type1_262" type="type1" route="se" depart="193.76146755483904" />
<vehicle id="type1_263" type="type1" route="wn" depart="193.85910840242167" />
<vehicle id="type1_264" type="type1" route="ew" depart="194.25330351638038" />
<vehicle id="type1_265" type="type1" route="en" depart="194.5910424316304" />
<vehicle id="emv_17" type="rescue" route="sw" depart="195.63929157653075" />
<vehicle id="type1_266" type="type1" route="sw" depart="198.9456208628074" />
<vehicle id="type1_267" type="type1" route="sn" depart="199.89101800435222" />
<vehicle id="type1_268" type="type1" route="en" depart="200.6361893446619" />
<vehicle id="type1_269" type="type1" route="sn" depart="202.5297255759309" />
<vehicle id="type1_270" type="type1" route="ne" depart="203.03186542297306" />
<vehicle id="type1_271" type="type1" route="nw" depart="203.91791503385912" />
<vehicle id="type1_272" type="type1" route="sw" depart="204.05056156469" />
<vehicle id="type1_273" type="type1" route="ws" depart="204.0595779347964" />
<vehicle id="emv_18" type="rescue" route="en" depart="204.6151694264088" />
<vehicle id="type1_274" type="type1" route="we" depart="208.43314368871427" />
<vehicle id="type1_275" type="type1" route="ew" depart="209.30856145299109" />
<vehicle id="type1_276" type="type1" route="sn" depart="210.04119656315012" />
<vehicle id="type1_277" type="type1" route="ns" depart="210.74187478859037" />
<vehicle id="type1_278" type="type1" route="ew" depart="211.72905789883285" />
<vehicle id="type1_279" type="type1" route="ew" depart="212.05044633889565" />
<vehicle id="type1_280" type="type1" route="se" depart="212.58712365327074" />
<vehicle id="type1_281" type="type1" route="wn" depart="213.8410939192715" />
<vehicle id="type1_282" type="type1" route="ew" depart="214.1892165759358" />
<vehicle id="type1_283" type="type1" route="ew" depart="216.42481846005217" />
<vehicle id="type1_284" type="type1" route="ws" depart="216.54718118203013" />
<vehicle id="type1_285" type="type1" route="we" depart="217.2592799625888" />
<vehicle id="type1_286" type="type1" route="we" depart="217.9359415260578" />
<vehicle id="type1_287" type="type1" route="sn" depart="217.93749880368625" />
<vehicle id="type1_288" type="type1" route="ew" depart="219.78221468984987" />
<vehicle id="type1_289" type="type1" route="we" depart="219.8309677158368" />
<vehicle id="emv_19" type="rescue" route="se" depart="220.94947823131108" />
<vehicle id="type1_290" type="type1" route="ws" depart="221.997428406902" />
<vehicle id="type1_291" type="type1" route="nw" depart="223.04408643085975" />
<vehicle id="type1_292" type="type1" route="ne" depart="223.9776916057675" />
<vehicle id="type1_293" type="type1" route="sn" depart="224.15533052971708" />
<vehicle id="emv_20" type="rescue" route="wn" depart="224.62635109704576" />
<vehicle id="type1_294" type="type1" route="wn" depart="224.80713104017835" />
<vehicle id="type1_295" type="type1" route="ws" depart="225.12617596656492" />
<vehicle id="type1_296" type="type1" route="ew" depart="226.43348380490872" />
<vehicle id="type1_297" type="type1" route="ew" depart="226.7572102221996" />
<vehicle id="type1_298" type="type1" route="ne" depart="227.12547015495713" />
<vehicle id="type1_299" type="type1" route="se" depart="227.64522475304773" />
<vehicle id="type1_300" type="type1" route="ws" depart="230.5659881537201" />
<vehicle id="type1_301" type="type1" route="ew" depart="231.80770015193374" />
<vehicle id="type1_302" type="type1" route="ws" depart="232.35636707788763" />
<vehicle id="type1_303" type="type1" route="se" depart="232.55321683524733" />
<vehicle id="type1_304" type="type1" route="ne" depart="232.6650332475648" />
<vehicle id="type1_305" type="type1" route="sw" depart="232.91120136698527" />
<vehicle id="emv_21" type="rescue" route="we" depart="233.69981825889496" />
<vehicle id="type1_306" type="type1" route="ws" depart="234.04703102238847" />
<vehicle id="type1_307" type="type1" route="ew" depart="234.34766395029294" />
<vehicle id="type1_308" type="type1" route="en" depart="235.29496923090977" />
<vehicle id="type1_309" type="type1" route="nw" depart="235.4088026381677" />
<vehicle id="type1_310" type="type1" route="wn" depart="236.389270150244" />
<vehicle id="type1_311" type="type1" route="nw" depart="236.5124502361607" />
<vehicle id="type1_312" type="type1" route="nw" depart="236.56915806711382" />
<vehicle id="type1_313" type="type1" route="sw" depart="236.70664709804694" />
<vehicle id="type1_314" type="type1" route="en" depart="238.01193161071032" />
<vehicle id="emv_22" type="rescue" route="ew" depart="238.48332580137273" />
<vehicle id="type1_315" type="type1" route="sw" depart="238.53013169547103" />
<vehicle id="type1_316" type="type1" route="ne" depart="238.85915480247772" />
<vehicle id="type1_317" type="type1" route="en" depart="240.58990007712174" />
<vehicle id="type1_318" type="type1" route="sn" depart="240.80636631937168" />
<vehicle id="type1_319" type="type1" route="nw" depart="240.87882527702192" />
<vehicle id="type1_320" type="type1" route="sw" depart="240.9869978148252" />
<vehicle id="type1_321" type="type1" route="ns" depart="241.34572591780875" />
<vehicle id="type1_322" type="type1" route="ew" depart="241.95261038133472" />
<vehicle id="type1_323" type="type1" route="se" depart="242.74237685905638" />
<vehicle id="emv_23" type="rescue" route="se" depart="242.90248166546112" />
<vehicle id="type1_324" type="type1" route="we" depart="242.94939350888598" />
<vehicle id="type1_325" type="type1" route="we" depart="242.97547691172892" />
<vehicle id="type1_326" type="type1" route="nw" depart="243.12223382648722" />
<vehicle id="type1_327" type="type1" route="se" depart="243.93432634974778" />
<vehicle id="type1_328" type="type1" route="en" depart="244.11271537791396" />
<vehicle id="type1_329" type="type1" route="we" depart="245.34879345599015" />
<vehicle id="type1_330" type="type1" route="ws" depart="245.41344466614092" />
<vehicle id="type1_331" type="type1" route="se" depart="245.45214401119426" />
<vehicle id="type1_332" type="type1" route="en" depart="246.0708488358827" />
<vehicle id="type1_333" type="type1" route="ws" depart="246.59367282414678" />
<vehicle id="type1_334" type="type1" route="ns" depart="249.27956316117914" />
<vehicle id="type1_335" type="type1" route="ns" depart="249.29503210084516" />
<vehicle id="type1_336" type="type1" route="nw" depart="249.542797815554" />
<vehicle id="type1_337" type="type1" route="wn" depart="251.1403960167593" />
<vehicle id="type1_338" type="type1" route="sn" depart="251.17430425662343" />
<vehicle id="type1_339" type="type1" route="sw" depart="251.9753720867832" />
<vehicle id="type1_340" type="type1" route="sn" depart="255.5760769402293" />
<vehicle id="emv_24" type="rescue" route="wn" depart="256.3688355992141" />
<vehicle id="type1_341" type="type1" route="sn" depart="256.9526272580078" />
<vehicle id="type1_342" type="type1" route="ne" depart="257.7071669214516" />