<routes>
            <vType id="type1" accel="0.8" decel="4.5" sigma="0.5" length="5" maxSpeed="70"/>
            <vType id="rescue" vClass="emergency" speedFactor="1.5" guiShape="emergency">
                <param key="has.bluelight.device" value="true"/>
            </vType>
            <route id="ne" edges="ni eo"/>
            <route id="ns" edges="ni so"/>
            <route id="nw" edges="ni wo"/>
            <route id="en" edges="ei no"/>
            <route id="es" edges="ei so"/>
            <route id="ew" edges="ei wo"/>
            <route id="sn" edges="si no"/>
            <route id="se" edges="si eo"/>
            <route id="sw" edges="si wo"/>
            <route id="wn" edges="wi no"/>
            <route id="we" edges="wi eo"/>
            <route id="ws" edges="wi so"/>
        
            <personFlow id="p_ns" begin="0" end="400" period="50">
                <walk route="ns"/>
            </personFlow>
                         
            <personFlow id="p_we" begin="0" end="400" period="50">
                <walk route="we"/>
            </personFlow>
                         
            <personFlow id="p_ew" begin="0" end="400" period="50">
                <walk route="ew"/>
            </personFlow>
                         
            <personFlow id="p_sn" begin="0" end="400" period="50">
                <walk route="sn"/>
            </personFlow>
                         <vehicle id="type1_1" type="type1" route="ns" depart="2.781031942479738" />
<vehicle id="type1_2" type="type1" route="we" depart="3.1227876736590687" />
<vehicle id="type1_3" type="type1" route="en" depart="4.333704964661811" />
<vehicle id="type1_4" type="type1" route="wn" depart="6.023566346582429" />
<vehicle id="type1_5" type="type1" route="se" depart="6.120664901151986" />
<vehicle id="type1_6" type="type1" route="se" depart="6.796788215592923" />
<vehicle id="type1_7" type="type1" route="ne" depart="10.688283700619277" />
<vehicle id="type1_8" type="type1" route="ne" depart="14.751865955564938" />
<vehicle id="type1_9" type="type1" route="ws" depart="15.296622463571577" />
<vehicle id="type1_10" type="type1" route="nw" depart="15.31331208487094" />
<vehicle id="type1_11" type="type1" route="ws" depart="16.364189577425282" />
<vehicle id="type1_12" type="type1" route="ns" depart="20.11432954123986" />
<vehicle id="type1_13" type="type1" route="en" depart="20.647991386300355" />
<vehicle id="type1_14" type="type1" route="ew" depart="23.500158004751842" />
<vehicle id="type1_15" type="type1" route="se" depart="24.612897921224636" />
<vehicle id="type1_16" type="type1" route="ns" depart="27.020714084218035" />
<vehicle id="type1_17" type="type1" route="ws" depart="27.23371366635156" />
<vehicle id="type1_18" type="type1" route="sw" depart="27.36767099137833" />
<vehicle id="type1_19" type="type1" route="ne" depart="30.15318160629787" />
<vehicle id="type1_20" type="type1" route="ew" depart="30.957763708448603" />
<vehicle id="type1_21" type="type1" route="ne" depart="33.49685559759292" />
<vehicle id="type1_22" type="type1" route="es" depart="33.51152578098" />
<vehicle id="type1_23" type="type1" route="en" depart="35.71441324960465" />
<vehicle id="type1_24" type="type1" route="es" depart="37.47722726476893" />
<vehicle id="type1_25" type="type1" route="en" depart="39.65158452586809" />
<vehicle id="type1_26" type="type1" route="ws" depart="39.6962451609169" />
<vehicle id="type1_27" type="type1" route="ne" depart="42.0980906781182" />
<vehicle id="type1_28" type="type1" route="ws" depart="42.862661657199915" />
<vehicle id="type1_29" type="type1" route="ns" depart="44.293338970528595" />
<vehicle id="type1_30" type="type1" route="se" depart="45.74466202541266" />
<vehicle id="type1_31" type="type1" route="wn" depart="50.703480735142584" />
<vehicle id="type1_32" type="type1" route="es" depart="52.001262622262715" />
<vehicle id="type1_33" type="type1" route="we" depart="52.38344819899107" />
<vehicle id="type1_34" type="type1" route="ws" depart="52.66481522556148" />
<vehicle id="type1_35" type="type1" route="ne" depart="52.89992420944557" />
<vehicle id="type1_36" type="type1" route="ws" depart="55.4417195471439" />
<vehicle id="type1_37" type="type1" route="nw" depart="59.80021735140886" />
<vehicle id="emv_1" type="rescue" route="sn" depart="63.202993500733875" />
<vehicle id="type1_38" type="type1" route="ne" depart="65.67256749638237" />
<vehicle id="type1_39" type="type1" route="nw" depart="70.82118294432601" />
<vehicle id="type1_40" type="type1" route="se" depart="79.60227811228923" />
<vehicle id="type1_41" type="type1" route="ew" depart="79.90032820409033" />
<vehicle id="type1_42" type="type1" route="se" depart="81.71283129308179" />
<vehicle id="type1_43" type="type1" route="we" depart="89.586419506454" />
<vehicle id="type1_44" type="type1" route="we" depart="92.23404012039981" />
<vehicle id="type1_45" type="type1" route="wn" depart="93.16012490869792" />
<vehicle id="type1_46" type="type1" route="sn" depart="94.44254325402252" />
<vehicle id="type1_47" type="type1" route="sw" depart="98.63895939627064" />
<vehicle id="type1_48" type="type1" route="sn" depart="101.95649773074035" />
<vehicle id="emv_2" type="rescue" route="ns" depart="105.42406863064065" />
<vehicle id="type1_49" type="type1" route="es" depart="106.77533557102925" />
<vehicle id="type1_50" type="type1" route="ne" depart="107.02387001975353" />
<vehicle id="type1_51" type="type1" route="we" depart="107.36371537821697" />
<vehicle id="type1_52" type="type1" route="se" depart="108.05925511321927" />
<vehicle id="type1_53" type="type1" route="sw" depart="108.95943160891544" />
<vehicle id="type1_54" type="type1" route="we" depart="109.62081234415216" />
<vehicle id="type1_55" type="type1" route="en" depart="111.56031599474512" />
<vehicle id="type1_56" type="type1" route="sn" depart="112.97269722644319" />
<vehicle id="type1_57" type="type1" route="es" depart="114.20106390504091" />
<vehicle id="type1_58" type="type1" route="sn" depart="119.62336177231634" />
<vehicle id="type1_59" type="type1" route="en" depart="120.78746984615059" />
<vehicle id="type1_60" type="type1" route="en" depart="120.82847103797621" />
<vehicle id="emv_3" type="rescue" route="we" depart="121.43932012339293" />
<vehicle id="type1_61" type="type1" route="ns" depart="121.829428818519" />
<vehicle id="type1_62" type="type1" route="ns" depart="122.21449167661507" />
<vehicle id="type1_63" type="type1" route="sn" depart="127.26051123324868" />
<vehicle id="type1_64" type="type1" route="es" depart="133.43092055891015" />
<vehicle id="type1_65" type="type1" route="se" depart="137.51319337192132" />
<vehicle id="type1_66" type="type1" route="we" depart="138.17790043210283" />
<vehicle id="type1_67" type="type1" route="sw" depart="138.9139831457463" />
<vehicle id="type1_68" type="type1" route="we" depart="140.46127645179035" />
<vehicle id="type1_69" type="type1" route="en" depart="140.49535443961753" />
<vehicle id="type1_70" type="type1" route="se" depart="140.67192696389793" />
<vehicle id="type1_71" type="type1" route="nw" depart="149.62004042762396" />
<vehicle id="type1_72" type="type1" route="sw" depart="154.33948752848676" />
<vehicle id="type1_73" type="type1" route="ns" depart="154.50606979047674" />
<vehicle id="type1_74" type="type1" route="nw" depart="160.5092695703651" />
<vehicle id="type1_75" type="type1" route="sn" depart="163.7749077315621" />
<vehicle id="type1_76" type="type1" route="wn" depart="164.11026255149952" />
<vehicle id="type1_77" type="type1" route="ns" depart="165.48332394851593" />
<vehicle id="type1_78" type="type1" route="es" depart="171.3948088697442" />
<vehicle id="type1_79" type="type1" route="sw" depart="173.348381380565" />
<vehicle id="type1_80" type="type1" route="ne" depart="174.76659647205213" />
<vehicle id="type1_81" type="type1" route="es" depart="178.54678111772625" />
<vehicle id="type1_82" type="type1" route="se" depart="181.83418336023755" />
<vehicle id="type1_83" type="type1" route="sw" depart="183.70176537297667" />
<vehicle id="type1_84" type="type1" route="ws" depart="183.70727398586385" />
<vehicle id="type1_85" type="type1" route="se" depart="185.51912988725897" />
<vehicle id="type1_86" type="type1" route="es" depart="186.927211688447" />
<vehicle id="type1_87" type="type1" route="se" depart="192.93916542600556" />
<vehicle id="type1_88" type="type1" route="nw" depart="194.62962600301756" />
<vehicle id="type1_89" type="type1" route="sw" depart="201.21249631681619" />
<vehicle id="type1_90" type="type1" route="nw" depart="203.9588508005645" />
<vehicle id="type1_91" type="type1" route="en" depart="204.17851999744892" />
<vehicle id="type1_92" type="type1" route="en" depart="205.18482921100104" />
<vehicle id="type1_93" type="type1" route="ws" depart="205.54935143322882" />
<vehicle id="type1_94" type="type1" route="sn" depart="213.76428891469007" />
<vehicle id="type1_95" type="type1" route="ws" depart="214.02944836983383" />
<vehicle id="type1_96" type="type1" route="we" depart="216.44545627023643" />
<vehicle id="type1_97" type="type1" route="sw" depart="216.90612579686487" />
<vehicle id="type1_98" type="type1" route="se" depart="217.81013888123067" />
<vehicle id="type1_99" type="type1" route="ew" depart="220.46436971111368" />
<vehicle id="type1_100" type="type1" route="we" depart="223.28474803951448" />
<vehicle id="type1_101" type="type1" route="ne" depart="223.43420192383505" />
<vehicle id="type1_102" type="type1" route="se" depart="223.96999597764426" />
<vehicle id="type1_103" type="type1" route="sw" depart="226.0656240017048" />
<vehicle id="type1_104" type="type1" route="wn" depart="226.1867471169831" />
<vehicle id="type1_105" type="type1" route="ns" depart="231.92923308218948" />
<vehicle id="type1_106" type="type1" route="en" depart="232.6151735846287" />
<vehicle id="type1_107" type="type1" route="sn" depart="233.6144087061052" />
<vehicle id="type1_108" type="type1" route="wn" depart="241.2880622810103" />
<vehicle id="type1_109" type="type1" route="en" depart="242.18087752151723" />
<vehicle id="type1_110" type="type1" route="es" depart="245.12485466069492" />
<vehicle id="type1_111" type="type1" route="nw" depart="253.48079646640156" />
<vehicle id="type1_112" type="type1" route="wn" depart="254.77840547459618" />
<vehicle id="type1_113" type="type1" route="wn" depart="261.79134133558534" />
<vehicle id="type1_114" type="type1" route="ws" depart="262.0650842140726" />
<vehicle id="type1_115" type="type1" route="wn" depart="263.1563081702445" />
<vehicle id="type1_116" type="type1" route="sn" depart="265.106992332853" />
<vehicle id="type1_117" type="type1" route="nw" depart="267.5014087940129" />
<vehicle id="type1_118" type="type1" route="es" depart="268.13837810027786" />
<vehicle id="type1_119" type="type1" route="ns" depart="271.9235403391322" />
<vehicle id="type1_120" type="type1" route="nw" depart="276.387510619743" />
<vehicle id="type1_121" type="type1" route="sn" depart="280.9032956870922" />
<vehicle id="type1_122" type="type1" route="wn" depart="284.55589030923585" />
<vehicle id="emv_4" type="rescue" route="en" depart="285.49081229044486" />
<vehicle id="type1_123" type="type1" route="se" depart="287.2126566957455" />
<vehicle id="type1_124" type="type1" route="ns" depart="288.0137144526205" />
<vehicle id="type1_125" type="type1" route="en" depart="288.74807796901524" />
<vehicle id="type1_126" type="type1" route="sw" depart="291.9537426336708" />
<vehicle id="type1_127" type="type1" route="se" depart="291.98909181940127" />
<vehicle id="type1_128" type="type1" route="en" depart="295.1360562800705" />
<vehicle id="type1_129" type="type1" route="ew" depart="295.3515364191388" />
<vehicle id="type1_130" type="type1" route="ws" depart="299.55282170807936" />
<vehicle id="type1_131" type="type1" route="ns" depart="302.06007699637956" />
<vehicle id="type1_132" type="type1" route="ew" depart="302.2346375047871" />
<vehicle id="type1_133" type="type1" route="en" depart="303.88044907239936" />
<vehicle id="type1_134" type="type1" route="nw" depart="304.42618221552766" />
<vehicle id="type1_135" type="type1" route="sn" depart="306.07175236132844" />
<vehicle id="type1_136" type="type1" route="se" depart="306.8731432441193" />
<vehicle id="type1_137" type="type1" route="wn" depart="307.7199876218891" />
<vehicle id="type1_138" type="type1" route="en" depart="312.1407885834915" />
<vehicle id="type1_139" type="type1" route="sn" depart="313.08595942328174" />
<vehicle id="type1_140" type="type1" route="wn" depart="316.9049266610656" />
<vehicle id="type1_141" type="type1" route="ns" depart="318.61953348077344" />
<vehicle id="type1_142" type="type1" route="we" depart="322.8308439682789" />
<vehicle id="type1_143" type="type1" route="se" depart="327.16540964072306" />
<vehicle id="type1_144" type="type1" route="we" depart="327.9893740958881" />
<vehicle id="type1_145" type="type1" route="wn" depart="328.7782921606144" />
<vehicle id="type1_146" type="type1" route="sw" depart="336.85687635726055" />
<vehicle id="type1_147" type="type1" route="ws" depart="338.1937911187602" />
<vehicle id="type1_148" type="type1" route="en" depart="341.7878648664657" />
<vehicle id="type1_149" type="type1" route="nw" depart="342.82755054393397" />
<vehicle id="type1_150" type="type1" route="nw" depart="346.1872132612702" />
<vehicle id="type1_151" type="type1" route="ne" depart="348.18790980799173" />
<vehicle id="type1_152" type="type1" route="ns" depart="349.3566117223607" />
<vehicle id="type1_153" type="type1" route="nw" depart="349.51230540885865" />
<vehicle id="emv_5" type="rescue" route="wn" depart="354.4290020492243" />
<vehicle id="type1_154" type="type1" route="ew" depart="354.78387167566746" />
<vehicle id="type1_155" type="type1" route="es" depart="356.2296367978812" />
<vehicle id="type1_156" type="type1" route="we" depart="356.8115256366729" />
<vehicle id="type1_157" type="type1" route="sw" depart="360.2119887519778" />
<vehicle id="type1_158" type="type1" route="ns" depart="361.4807584972487" />
<vehicle id="type1_159" type="type1" route="se" depart="362.62450929597003" />
<vehicle id="type1_160" type="type1" route="nw" depart="363.7932620539042" />
<vehicle id="type1_161" type="type1" route="ns" depart="365.08229008491736" />
<vehicle id="type1_162" type="type1" route="ew" depart="365.7909846404769" />
<vehicle id="type1_163" type="type1" route="en" depart="366.6758914780647" />
<vehicle id="type1_164" type="type1" route="we" depart="366.8191122932568" />
<vehicle id="type1_165" type="type1" route="es" depart="371.121004973016" />
<vehicle id="type1_166" type="type1" route="sn" depart="372.6764243256056" />
<vehicle id="type1_167" type="type1" route="sn" depart="377.352485639519" />
<vehicle id="type1_168" type="type1" route="se" depart="379.5587341815023" />
<vehicle id="type1_169" type="type1" route="nw" depart="380.77979968983885" />
<vehicle id="type1_170" type="type1" route="ne" depart="385.2253068711678" />
<vehicle id="type1_171" type="type1" route="ns" depart="386.60381744991133" />
<vehicle id="type1_172" type="type1" route="en" depart="387.0028952018275" />
<vehicle id="type1_173" type="type1" route="sn" depart="387.65601276061756" />
<vehicle id="type1_174" type="type1" route="ws" depart="388.7184264637636" />
<vehicle id="type1_175" type="type1" route="wn" depart="388.8974829440752" />
<vehicle id="type1_176" type="type1" route="en" depart="390.7201662316437" />
<vehicle id="type1_177" type="type1" route="se" depart="396.2512795310264" />
<vehicle id="type1_178" type="type1" route="ew" depart="397.6264713204839" />
<vehicle id="type1_179" type="type1" route="nw" depart="398.1500885735721" />
<vehicle id="type1_180" type="type1" route="nw" depart="398.98524356785015" />
<vehicle id="type1_181" type="type1" route="es" depart="399.82487044968934" />
<vehicle id="type1_182" type="type1" route="ns" depart="400.85648056698534" />
<vehicle id="type1_183" type="type1" route="wn" depart="401.690013690744" />
<vehicle id="type1_184" type="type1" route="sw" depart="401.95266214701854" />
<vehicle id="type1_185" type="type1" route="es" depart="402.6547165826583" />
<vehicle id="type1_186" type="type1" route="sw" depart="402.79753771137575" />
<vehicle id="type1_187" type="type1" route="nw" depart="404.3641929252919" />
<vehicle id="type1_188" type="type1" route="ns" depart="407.4851973583071" />
<vehicle id="type1_189" type="type1" route="es" depart="411.61020511093585" />
<vehicle id="type1_190" type="type1" route="sn" depart="423.0379931769218" />
<vehicle id="type1_191" type="type1" route="nw" depart="426.23037967071684" />
<vehicle id="type1_192" type="type1" route="ne" depart="427.2989053343232" />
<vehicle id="type1_193" type="type1" route="se" depart="427.3822555408545" />
<vehicle id="type1_194" type="type1" route="ne" depart="428.6940370603939" />
<vehicle id="type1_195" type="type1" route="nw" depart="430.1766030498051" />
<vehicle id="type1_196" type="type1" route="sn" depart="430.9129533092687" />
<vehicle id="type1_197" type="type1" route="se" depart="431.39506832105144" />
<vehicle id="type1_198" type="type1" route="ns" depart="434.0068983006386" />
<vehicle id="type1_199" type="type1" route="se" depart="437.45433604868236" />
<vehicle id="type1_200" type="type1" route="sn" depart="439.08493488852383" />
<vehicle id="type1_201" type="type1" route="sn" depart="439.87016635179333" />
<vehicle id="type1_202" type="type1" route="ew" depart="440.9379963785459" />
<vehicle id="type1_203" type="type1" route="ne" depart="441.08832120296813" />
<vehicle id="type1_204" type="type1" route="ew" depart="442.82213809906324" />
<vehicle id="type1_205" type="type1" route="ew" depart="447.92708971060785" />
<vehicle id="type1_206" type="type1" route="ew" depart="448.0780483285074" />
<vehicle id="type1_207" type="type1" route="ne" depart="451.4213251334803" />
<vehicle id="type1_208" type="type1" route="sn" depart="452.6351935885284" />
<vehicle id="type1_209" type="type1" route="wn" depart="453.76163377786054" />
<vehicle id="type1_210" type="type1" route="sw" depart="454.0839221118101" />
<vehicle id="type1_211" type="type1" route="ew" depart="455.21078350079256" />
<vehicle id="type1_212" type="type1" route="ws" depart="461.61965105498206" />
<vehicle id="type1_213" type="type1" route="es" depart="462.4839772525683" />
<vehicle id="type1_214" type="type1" route="ns" depart="464.10650955022754" />
<vehicle id="type1_215" type="type1" route="we" depart="465.7375710620688" />
<vehicle id="emv_6" type="rescue" route="es" depart="468.3050905261423" />
<vehicle id="type1_216" type="type1" route="es" depart="468.7534254701662" />
<vehicle id="type1_217" type="type1" route="es" depart="471.16133943100624" />
<vehicle id="type1_218" type="type1" route="ws" depart="472.1204628997383" />
<vehicle id="type1_219" type="type1" route="ew" depart="483.61016634545445" />
<vehicle id="type1_220" type="type1" route="ws" depart="486.45504828175257" />
<vehicle id="type1_221" type="type1" route="wn" depart="491.4819950136866" />
<vehicle id="type1_222" type="type1" route="ws" depart="496.8685685946885" />
<vehicle id="type1_223" type="type1" route="we" depart="498.6403884907249" />
<vehicle id="type1_224" type="type1" route="wn" depart="499.7895827782717" />
<vehicle id="type1_225" type="type1" route="wn" depart="500.04356956362494" />
<vehicle id="type1_226" type="type1" route="ew" depart="500.8845616575633" />
<vehicle id="type1_227" type="type1" route="ws" depart="501.49839754085656" />
<vehicle id="type1_228" type="type1" route="sn" depart="502.6043912608913" />
<vehicle id="type1_229" type="type1" route="we" depart="504.3944420513198" />
<vehicle id="type1_230" type="type1" route="ew" depart="504.47132256188144" />
<vehicle id="type1_231" type="type1" route="ew" depart="508.7820055896689" />
<vehicle id="type1_232" type="type1" route="ns" depart="511.68623727374194" />
<vehicle id="type1_233" type="type1" route="sw" depart="511.75477558563955" />
<vehicle id="type1_234" type="type1" route="nw" depart="512.5873297380125" />
<vehicle id="type1_235" type="type1" route="nw" depart="512.9282318539831" />
<vehicle id="type1_236" type="type1" route="wn" depart="514.1396097830734" />
<vehicle id="type1_237" type="type1" route="sn" depart="516.7485572651987" />
<vehicle id="type1_238" type="type1" route="ne" depart="519.5569397184335" />
<vehicle id="type1_239" type="type1" route="ne" depart="521.2437177122434" />
<vehicle id="type1_240" type="type1" route="en" depart="523.46645360342" />
<vehicle id="type1_241" type="type1" route="sn" depart="523.9195862064073" />
<vehicle id="type1_242" type="type1" route="nw" depart="526.7101072128468" />
<vehicle id="type1_243" type="type1" route="nw" depart="529.7443238976886" />
<vehicle id="type1_244" type="type1" route="wn" depart="530.9036152746054" />
<vehicle id="type1_245" type="type1" route="sw" depart="530.918381903651" />
<vehicle id="type1_246" type="type1" route="wn" depart="532.3939127179306" />
<vehicle id="type1_247" type="type1" route="es" depart="533.4478123976229" />
<vehicle id="type1_248" type="type1" route="ws" depart="535.580974739978" />
<vehicle id="type1_249" type="type1" route="sn" depart="539.5895382313886" />
<vehicle id="type1_250" type="type1" route="ne" depart="542.1521776000375" />
<vehicle id="type1_251" type="type1" route="ne" depart="547.0859610689633" />
<vehicle id="type1_252" type="type1" route="ws" depart="550.3924364962389" />
<vehicle id="type1_253" type="type1" route="sw" depart="550.553650606004" />
<vehicle id="type1_254" type="type1" route="ws" depart="550.8380108767427" />
<vehicle id="type1_255" type="type1" route="sn" depart="553.4411308246051" />
<vehicle id="type1_256" type="type1" route="we" depart="554.3294199244192" />
<vehicle id="type1_257" type="type1" route="wn" depart="555.6568009087847" />
<vehicle id="type1_258" type="type1" route="es" depart="557.188575417387" />
<vehicle id="type1_259" type="type1" route="ns" depart="559.1830668512254" />
<vehicle id="type1_260" type="type1" route="wn" depart="559.4193401499531" />
<vehicle id="emv_7" type="rescue" route="ew" depart="561.7313641091116" />
<vehicle id="type1_261" type="type1" route="se" depart="567.1183386041532" />
<vehicle id="type1_262" type="type1" route="sw" depart="567.1305075248347" />
<vehicle id="type1_263" type="type1" route="ne" depart="570.5617409811837" />
<vehicle id="type1_264" type="type1" route="sw" depart="571.6447261358162" />
<vehicle id="type1_265" type="type1" route="sw" depart="572.4798869556415" />
<vehicle id="type1_266" type="type1" route="ns" depart="573.823070858174" />
<vehicle id="type1_267" type="type1" route="en" depart="574.2327813769455" />
<vehicle id="type1_268" type="type1" route="ne" depart="579.6918560083244" />
<vehicle id="type1_269" type="type1" route="ns" depart="580.7468572211174" />
<vehicle id="type1_270" type="type1" route="sw" depart="582.5018027081012" />
<vehicle id="type1_271" type="type1" route="wn" depart="584.3981592834668" />
<vehicle id="type1_272" type="type1" route="en" depart="587.0527114692416" />
<vehicle id="type1_273" type="type1" route="nw" depart="587.4622820284367" />
<vehicle id="type1_274" type="type1" route="nw" depart="587.6601559960307" />
<vehicle id="type1_275" type="type1" route="ew" depart="596.8887822510608" />
<vehicle id="type1_276" type="type1" route="wn" depart="598.4267163976875" />
<vehicle id="type1_277" type="type1" route="en" depart="599.3199059677634" />
<vehicle id="type1_278" type="type1" route="ws" depart="601.1025069190362" />
<vehicle id="type1_279" type="type1" route="ns" depart="601.1358995017356" />
<vehicle id="type1_280" type="type1" route="sw" depart="601.4150902232822" />
<vehicle id="type1_281" type="type1" route="nw" depart="602.9169238151392" />
<vehicle id="emv_8" type="rescue" route="sn" depart="604.308942064834" />
<vehicle id="type1_282" type="type1" route="ns" depart="604.3453319321508" />
<vehicle id="type1_283" type="type1" route="ws" depart="604.531477821375" />
<vehicle id="type1_284" type="type1" route="nw" depart="608.0048382456993" />
<vehicle id="type1_285" type="type1" route="ne" depart="609.0312579350747" />
<vehicle id="type1_286" type="type1" route="en" depart="614.5664753663913" />
<vehicle id="type1_287" type="type1" route="ne" depart="617.8342328497391" />
<vehicle id="type1_288" type="type1" route="nw" depart="620.5659756319237" />
<vehicle id="type1_289" type="type1" route="ne" depart="624.269788014595" />
<vehicle id="type1_290" type="type1" route="ns" depart="626.0397706003241" />
<vehicle id="type1_291" type="type1" route="ne" depart="626.5070534756863" />
<vehicle id="type1_292" type="type1" route="nw" depart="627.2910694020617" />
<vehicle id="type1_293" type="type1" route="es" depart="633.3640672218769" />
<vehicle id="type1_294" type="type1" route="we" depart="634.0245716725192" />
<vehicle id="type1_295" type="type1" route="we" depart="634.9537715604839" />
<vehicle id="type1_296" type="type1" route="en" depart="639.0115158758024" />
<vehicle id="type1_297" type="type1" route="ws" depart="639.4221229364836" />
<vehicle id="type1_298" type="type1" route="ws" depart="639.7060467505416" />
<vehicle id="emv_9" type="rescue" route="nw" depart="642.0110064703306" />
<vehicle id="type1_299" type="type1" route="se" depart="646.9650583280559" />
<vehicle id="type1_300" type="type1" route="es" depart="648.4600967295711" />
<vehicle id="type1_301" type="type1" route="ns" depart="649.0830756780697" />
<vehicle id="type1_302" type="type1" route="sw" depart="649.2568376166945" />
<vehicle id="type1_303" type="type1" route="ws" depart="649.7679160805775" />
<vehicle id="type1_304" type="type1" route="we" depart="649.9750988704601" />
<vehicle id="type1_305" type="type1" route="wn" depart="654.2704963236837" />
<vehicle id="type1_306" type="type1" route="wn" depart="658.6673283311434" />
<vehicle id="type1_307" type="type1" route="ne" depart="665.6777139542485" />
<vehicle id="type1_308" type="type1" route="ew" depart="667.6762889199229" />
<vehicle id="type1_309" type="type1" route="ws" depart="668.5445816805703" />
<vehicle id="type1_310" type="type1" route="wn" depart="668.723507259218" />
<vehicle id="type1_311" type="type1" route="ns" depart="677.4397492502377" />
<vehicle id="type1_312" type="type1" route="sn" depart="681.7605731627624" />
<vehicle id="type1_313" type="type1" route="ne" depart="685.5834356270492" />
<vehicle id="type1_314" type="type1" route="se" depart="685.8962933595956" />
<vehicle id="type1_315" type="type1" route="es" depart="693.8296502905487" />
<vehicle id="type1_316" type="type1" route="ne" depart="701.0811974694626" />
<vehicle id="type1_317" type="type1" route="we" depart="701.5574021266007" />
<vehicle id="type1_318" type="type1" route="en" depart="703.2766918376147" />
<vehicle id="type1_319" type="type1" route="ws" depart="707.5407188823401" />
<vehicle id="type1_320" type="type1" route="en" depart="712.2249962509807" />
<vehicle id="type1_321" type="type1" route="ne" depart="715.396440234362" />
<vehicle id="type1_322" type="type1" route="nw" depart="718.4362018316791" />
<vehicle id="type1_323" type="type1" route="ne" depart="718.7303117290244" />
<vehicle id="type1_324" type="type1" route="en" depart="727.122520339708" />
<vehicle id="type1_325" type="type1" route="en" depart="727.5872927615752" />
<vehicle id="type1_326" type="type1" route="en" depart="732.831011923569" />
<vehicle id="type1_327" type="type1" route="es" depart="736.0819420200572" />
<vehicle id="type1_328" type="type1" route="ne" depart="736.2514651182081" />
<vehicle id="type1_329" type="type1" route="wn" depart="738.4426297947028" />
<vehicle id="type1_330" type="type1" route="ne" depart="739.1724900592094" />
<vehicle id="type1_331" type="type1" route="nw" depart="744.3520865069514" />
<vehicle id="type1_332" type="type1" route="sn" depart="745.8880101123916" />
<vehicle id="type1_333" type="type1" route="sw" depart="747.3391644980471" />
<vehicle id="type1_334" type="type1" route="we" depart="747.359504938902" />
<vehicle id="type1_335" type="type1" route="es" depart="748.1188155844873" />
<vehicle id="type1_336" type="type1" route="nw" depart="751.2945457456129" />
<vehicle id="type1_337" type="type1" route="nw" depart="751.7873648978273" />
<vehicle id="type1_338" type="type1" route="ns" depart="751.9056319199346" />
<vehicle id="type1_339" type="type1" route="ns" depart="753.8850222584806" />
<vehicle id="type1_340" type="type1" route="es" depart="754.7422450831517" />
<vehicle id="type1_341" type="type1" route="en" depart="757.197553877747" />
<vehicle id="type1_342" type="type1" route="we" depart="758.6014731898049" />
<vehicle id="type1_343" type="type1" route="se" depart="759.8174846191272" />
<vehicle id="type1_344" type="type1" route="sw" depart="760.538228573923" />
<vehicle id="type1_345" type="type1" route="sw" depart="763.7621149249334" />
<vehicle id="type1_346" type="type1" route="ne" depart="765.7539692370514" />
<vehicle id="type1_347" type="type1" route="nw" depart="765.8824366622748" />
<vehicle id="type1_348" type="type1" route="en" depart="771.2145903809867" />
<vehicle id="type1_349" type="type1" route="ew" depart="771.2646150350628" />
<vehicle id="type1_350" type="type1" route="nw" depart="774.5842041708868" />
<vehicle id="type1_351" type="type1" route="ne" depart="781.3324556853665" />
<vehicle id="type1_352" type="type1" route="nw" depart="792.112639738901" />
<vehicle id="type1_353" type="type1" route="ne" depart="794.4686277769946" />
<vehicle id="type1_354" type="type1" route="ew" depart="794.8292802251975" />
<vehicle id="type1_355" type="type1" route="ns" depart="794.9352221807607" />
<vehicle id="type1_356" type="type1" route="sn" depart="795.7100603186856" />
<vehicle id="type1_357" type="type1" route="ne" depart="798.6189999133827" />
<vehicle id="type1_358" type="type1" route="ns" depart="805.2920160303635" />