<routes>
            <vType id="type1" accel="0.8" decel="4.5" sigma="0.5" length="5" maxSpeed="70"/>
            <vType id="rescue" vClass="emergency" speedFactor="1.5" guiShape="emergency">
                <param key="has.bluelight.device" value="true"/>
            </vType>
            <route id="ne" edges="ni eo"/>
            <route id="ns" edges="ni so"/>
            <route id="nw" edges="ni wo"/>
            <route id="en" edges="ei no"/>
            <route id="es" edges="ei so"/>
            <route id="ew" edges="ei wo"/>
            <route id="sn" edges="si no"/>
            <route id="se" edges="si eo"/>
            <route id="sw" edges="si wo"/>
            <route id="wn" edges="wi no"/>
            <route id="we" edges="wi eo"/>
            <route id="ws" edges="wi so"/>
vehicle id="type1_233" type="type1" route="ns" depart="0" />
<vehicle id="type1_386" type="type1" route="ns" depart="16" />
<vehicle id="type1_65" type="type1" route="we" depart="35" />
<vehicle id="type1_103" type="type1" route="se" depart="37" />
<vehicle id="type1_234" type="type1" route="nw" depart="37" />
<vehicle id="type1_387" type="type1" route="we" depart="44" />
<vehicle id="type1_19" type="type1" route="sn" depart="50" />
<vehicle id="type1_388" type="type1" route="ws" depart="56" />
<vehicle id="type1_20" type="type1" route="sn" depart="60" />
<vehicle id="type1_389" type="type1" route="we" depart="72" />
<vehicle id="type1_104" type="type1" route="sn" depart="74" />
<vehicle id="type1_235" type="type1" route="ns" depart="74" />
<vehicle id="type1_317" type="type1" route="sn" depart="92" />
<vehicle id="type1_66" type="type1" route="ne" depart="98" />
<vehicle id="type1_236" type="type1" route="nw" depart="111" />
<vehicle id="type1_390" type="type1" route="ns" depart="136" />
<vehicle id="type1_1" type="type1" route="ew" depart="143" />
<vehicle id="type1_105" type="type1" route="sw" depart="148" />
<vehicle id="type1_237" type="type1" route="nw" depart="148" />
<vehicle id="type1_21" type="type1" route="sn" depart="150" />
<vehicle id="type1_391" type="type1" route="ew" depart="152" />
<vehicle id="type1_392" type="type1" route="ew" depart="156" />
<vehicle id="type1_318" type="type1" route="we" depart="161" />
<vehicle id="type1_393" type="type1" route="ws" depart="184" />
<vehicle id="type1_106" type="type1" route="se" depart="185" />
<vehicle id="type1_238" type="type1" route="nw" depart="185" />
<vehicle id="type1_513" type="type1" route="ws" depart="195" />
<vehicle id="type1_319" type="type1" route="ws" depart="207" />
<vehicle id="type1_365" type="type1" route="ew" depart="207" />
<vehicle id="type1_2" type="type1" route="ns" depart="221" />
<vehicle id="type1_67" type="type1" route="ne" depart="224" />
<vehicle id="type1_394" type="type1" route="we" depart="228" />
<vehicle id="type1_3" type="type1" route="ns" depart="247" />
<vehicle id="type1_395" type="type1" route="we" depart="256" />
<vehicle id="type1_107" type="type1" route="sn" depart="259" />
<vehicle id="type1_108" type="type1" route="se" depart="296" />
<vehicle id="type1_396" type="type1" route="en" depart="296" />
<vehicle id="type1_109" type="type1" route="sn" depart="300" />
<vehicle id="type1_239" type="type1" route="nw" depart="300" />
<vehicle id="type1_397" type="type1" route="ws" depart="305" />
<vehicle id="type1_22" type="type1" route="ew" depart="312" />
<vehicle id="type1_23" type="type1" route="sw" depart="318" />
<vehicle id="type1_110" type="type1" route="sn" depart="328" />
<vehicle id="type1_111" type="type1" route="sw" depart="342" />
<vehicle id="type1_240" type="type1" route="ns" depart="356" />
<vehicle id="type1_398" type="type1" route="sn" depart="365" />
<vehicle id="type1_241" type="type1" route="nw" depart="370" />
<vehicle id="type1_68" type="type1" route="ws" depart="384" />
<vehicle id="type1_112" type="type1" route="se" depart="398" />
<vehicle id="type1_113" type="type1" route="sn" depart="412" />
<vehicle id="type1_242" type="type1" route="ns" depart="412" />
<vehicle id="type1_399" type="type1" route="ws" depart="435" />
<vehicle id="type1_400" type="type1" route="we" depart="440" />
<vehicle id="type1_401" type="type1" route="we" depart="450" />
<vehicle id="type1_114" type="type1" route="sn" depart="454" />
<vehicle id="type1_69" type="type1" route="we" depart="456" />
<vehicle id="type1_402" type="type1" route="we" depart="465" />
<vehicle id="type1_243" type="type1" route="ns" depart="468" />
<vehicle id="type1_366" type="type1" route="sw" depart="470" />
<vehicle id="type1_403" type="type1" route="we" depart="480" />
<vehicle id="type1_115" type="type1" route="se" depart="482" />
<vehicle id="type1_244" type="type1" route="ns" depart="482" />
<vehicle id="type1_116" type="type1" route="se" depart="496" />
<vehicle id="type1_404" type="type1" route="ws" depart="500" />
<vehicle id="type1_320" type="type1" route="se" depart="504" />
<vehicle id="type1_4" type="type1" route="ns" depart="507" />
<vehicle id="type1_245" type="type1" route="ns" depart="510" />
<vehicle id="type1_514" type="type1" route="ns" depart="521" />
<vehicle id="type1_405" type="type1" route="we" depart="525" />
<vehicle id="type1_406" type="type1" route="ns" depart="530" />
<vehicle id="type1_117" type="type1" route="se" depart="538" />
<vehicle id="type1_70" type="type1" route="ws" depart="546" />
<vehicle id="type1_407" type="type1" route="we" depart="560" />
<vehicle id="type1_118" type="type1" route="sn" depart="566" />
<vehicle id="type1_321" type="type1" route="we" depart="572" />
<vehicle id="type1_367" type="type1" route="ws" depart="572" />
<vehicle id="type1_24" type="type1" route="sw" depart="582" />
<vehicle id="type1_322" type="type1" route="ew" depart="589" />
<vehicle id="type1_119" type="type1" route="sn" depart="594" />
<vehicle id="type1_408" type="type1" route="ws" depart="595" />
<vehicle id="type1_409" type="type1" route="sn" depart="606" />
<vehicle id="type1_120" type="type1" route="sn" depart="615" />
<vehicle id="type1_368" type="type1" route="sn" depart="618" />
<vehicle id="type1_410" type="type1" route="sn" depart="624" />
<vehicle id="type1_411" type="type1" route="ns" depart="630" />
<vehicle id="type1_515" type="type1" route="wn" depart="632" />
<vehicle id="type1_121" type="type1" route="sn" depart="645" />
<vehicle id="type1_516" type="type1" route="ne" depart="648" />
<vehicle id="type1_25" type="type1" route="sn" depart="660" />
<vehicle id="type1_412" type="type1" route="we" depart="669" />
<vehicle id="type1_26" type="type1" route="ew" depart="670" />
<vehicle id="type1_122" type="type1" route="sw" depart="675" />
<vehicle id="type1_246" type="type1" route="ns" depart="675" />
<vehicle id="type1_413" type="type1" route="en" depart="681" />
<vehicle id="type1_5" type="type1" route="we" depart="688" />
<vehicle id="type1_247" type="type1" route="nw" depart="690" />
<vehicle id="type1_71" type="type1" route="we" depart="692" />
<vehicle id="type1_414" type="type1" route="we" depart="702" />
<vehicle id="type1_123" type="type1" route="se" depart="705" />
<vehicle id="type1_248" type="type1" route="nw" depart="720" />
<vehicle id="type1_415" type="type1" route="we" depart="723" />
<vehicle id="type1_323" type="type1" route="en" depart="726" />
<vehicle id="type1_416" type="type1" route="ns" depart="732" />
<vehicle id="type1_124" type="type1" route="sn" depart="735" />
<vehicle id="type1_249" type="type1" route="ns" depart="735" />
<vehicle id="type1_125" type="type1" route="sn" depart="750" />
<vehicle id="type1_324" type="type1" route="sn" depart="762" />
<vehicle id="type1_369" type="type1" route="we" depart="762" />
<vehicle id="type1_417" type="type1" route="we" depart="762" />
<vehicle id="type1_72" type="type1" route="we" depart="764" />
<vehicle id="type1_250" type="type1" route="nw" depart="765" />
<vehicle id="type1_418" type="type1" route="wn" depart="768" />
<vehicle id="type1_27" type="type1" route="ew" depart="770" />
<vehicle id="type1_73" type="type1" route="we" depart="772" />
<vehicle id="type1_517" type="type1" route="ew" depart="776" />
<vehicle id="type1_419" type="type1" route="ns" depart="789" />
<vehicle id="type1_251" type="type1" route="nw" depart="795" />
<vehicle id="type1_420" type="type1" route="ew" depart="795" />
<vehicle id="type1_126" type="type1" route="se" depart="810" />
<vehicle id="type1_370" type="type1" route="we" depart="816" />
<vehicle id="type1_6" type="type1" route="ew" depart="820" />
<vehicle id="type1_127" type="type1" route="sn" depart="825" />
<vehicle id="type1_74" type="type1" route="nw" depart="828" />
<vehicle id="type1_325" type="type1" route="sn" depart="834" />
<vehicle id="type1_421" type="type1" route="we" depart="843" />
<vehicle id="type1_326" type="type1" route="se" depart="852" />
<vehicle id="type1_422" type="type1" route="ns" depart="852" />
<vehicle id="type1_7" type="type1" route="sn" depart="853" />
<vehicle id="type1_128" type="type1" route="sn" depart="855" />
<vehicle id="type1_423" type="type1" route="ws" depart="855" />
<vehicle id="type1_424" type="type1" route="sn" depart="864" />
<vehicle id="type1_129" type="type1" route="sn" depart="870" />
<vehicle id="type1_252" type="type1" route="nw" depart="870" />
<vehicle id="type1_425" type="type1" route="ws" depart="876" />
<vehicle id="type1_426" type="type1" route="es" depart="882" />
<vehicle id="type1_253" type="type1" route="ns" depart="885" />
<vehicle id="type1_518" type="type1" route="ns" depart="888" />
<vehicle id="type1_427" type="type1" route="ws" depart="894" />
<vehicle id="type1_130" type="type1" route="se" depart="900" />
<vehicle id="type1_254" type="type1" route="ns" depart="900" />
<vehicle id="type1_371" type="type1" route="ew" depart="900" />
<vehicle id="type1_28" type="type1" route="se" depart="905" />
<vehicle id="type1_327" type="type1" route="se" depart="910" />
<vehicle id="type1_428" type="type1" route="we" depart="912" />
<vehicle id="type1_131" type="type1" route="sw" depart="913" />
<vehicle id="type1_429" type="type1" route="we" depart="928" />
<vehicle id="type1_328" type="type1" route="se" depart="940" />
<vehicle id="type1_29" type="type1" route="ew" depart="945" />
<vehicle id="type1_132" type="type1" route="sn" depart="952" />
<vehicle id="type1_30" type="type1" route="en" depart="960" />
<vehicle id="type1_329" type="type1" route="sn" depart="960" />
<vehicle id="type1_372" type="type1" route="we" depart="960" />
<vehicle id="type1_430" type="type1" route="we" depart="960" />
<vehicle id="type1_31" type="type1" route="ew" depart="965" />
<vehicle id="type1_330" type="type1" route="se" depart="970" />
<vehicle id="type1_431" type="type1" route="ws" depart="972" />
<vehicle id="type1_133" type="type1" route="sw" depart="978" />
<vehicle id="type1_32" type="type1" route="ws" depart="980" />
<vehicle id="type1_75" type="type1" route="we" depart="980" />
<vehicle id="type1_519" type="type1" route="ws" depart="990" />
<vehicle id="type1_33" type="type1" route="en" depart="995" />
<vehicle id="type1_432" type="type1" route="we" depart="996" />
<vehicle id="type1_76" type="type1" route="we" depart="1000" />
<vehicle id="type1_373" type="type1" route="sw" depart="1000" />
<vehicle id="type1_433" type="type1" route="wn" depart="1000" />
<vehicle id="type1_331" type="type1" route="sn" depart="1010" />
<vehicle id="type1_134" type="type1" route="sn" depart="1017" />
<vehicle id="type1_34" type="type1" route="en" depart="1020" />
<vehicle id="type1_255" type="type1" route="ne" depart="1030" />
<vehicle id="type1_332" type="type1" route="sn" depart="1040" />
<vehicle id="type1_434" type="type1" route="we" depart="1040" />
<vehicle id="type1_333" type="type1" route="se" depart="1050" />
<vehicle id="type1_35" type="type1" route="se" depart="1055" />
<vehicle id="type1_36" type="type1" route="ew" depart="1065" />
<vehicle id="type1_135" type="type1" route="sw" depart="1069" />
<vehicle id="type1_37" type="type1" route="ew" depart="1070" />
<vehicle id="type1_334" type="type1" route="sn" depart="1070" />
<vehicle id="type1_435" type="type1" route="we" depart="1072" />
<vehicle id="type1_38" type="type1" route="sn" depart="1075" />
<vehicle id="type1_136" type="type1" route="se" depart="1082" />
<vehicle id="type1_436" type="type1" route="ns" depart="1084" />
<vehicle id="type1_39" type="type1" route="se" depart="1090" />
<vehicle id="type1_335" type="type1" route="wn" depart="1090" />
<vehicle id="type1_437" type="type1" route="ws" depart="1092" />
<vehicle id="type1_137" type="type1" route="sn" depart="1108" />
<vehicle id="type1_256" type="type1" route="ne" depart="1108" />
<vehicle id="type1_336" type="type1" route="we" depart="1120" />
<vehicle id="type1_138" type="type1" route="sn" depart="1121" />
<vehicle id="type1_337" type="type1" route="es" depart="1130" />
<vehicle id="type1_438" type="type1" route="nw" depart="1132" />
<vehicle id="type1_40" type="type1" route="ew" depart="1140" />
<vehicle id="type1_139" type="type1" route="sw" depart="1147" />
<vehicle id="type1_257" type="type1" route="ns" depart="1147" />
<vehicle id="type1_338" type="type1" route="ew" depart="1150" />
<vehicle id="type1_41" type="type1" route="se" depart="1155" />
<vehicle id="type1_439" type="type1" route="we" depart="1156" />
<vehicle id="type1_140" type="type1" route="sw" depart="1160" />
<vehicle id="type1_258" type="type1" route="nw" depart="1160" />
<vehicle id="type1_339" type="type1" route="se" depart="1160" />
<vehicle id="type1_440" type="type1" route="wn" depart="1164" />
<vehicle id="type1_340" type="type1" route="sn" depart="1170" />
<vehicle id="type1_141" type="type1" route="sn" depart="1186" />
<vehicle id="type1_42" type="type1" route="sn" depart="1195" />
<vehicle id="type1_142" type="type1" route="sn" depart="1199" />
<vehicle id="type1_259" type="type1" route="ns" depart="1199" />
<vehicle id="type1_260" type="type1" route="nw" depart="1200" />
<vehicle id="type1_8" type="type1" route="ns" depart="1217" />
<vehicle id="type1_441" type="type1" route="wn" depart="1228" />
<vehicle id="type1_77" type="type1" route="ew" depart="1235" />
<vehicle id="type1_520" type="type1" route="ns" depart="1240" />
<vehicle id="type1_143" type="type1" route="se" depart="1242" />
<vehicle id="type1_442" type="type1" route="ws" depart="1242" />
<vehicle id="type1_341" type="type1" route="sn" depart="1248" />
<vehicle id="type1_144" type="type1" route="sn" depart="1263" />
<vehicle id="type1_342" type="type1" route="we" depart="1264" />
<vehicle id="type1_78" type="type1" route="ws" depart="1270" />
<vehicle id="type1_43" type="type1" route="sn" depart="1284" />
<vehicle id="type1_145" type="type1" route="sn" depart="1284" />
<vehicle id="type1_261" type="type1" route="ns" depart="1305" />
<vehicle id="type1_374" type="type1" route="we" depart="1312" />
<vehicle id="type1_343" type="type1" route="sn" depart="1328" />
<vehicle id="type1_443" type="type1" route="we" depart="1333" />
<vehicle id="type1_344" type="type1" route="sw" depart="1360" />
<vehicle id="type1_146" type="type1" route="se" depart="1368" />
<vehicle id="type1_262" type="type1" route="ns" depart="1368" />
<vehicle id="type1_444" type="type1" route="ws" depart="1375" />
<vehicle id="type1_345" type="type1" route="sn" depart="1376" />
<vehicle id="type1_375" type="type1" route="sw" depart="1376" />
<vehicle id="type1_44" type="type1" route="en" depart="1382" />
<vehicle id="type1_445" type="type1" route="we" depart="1382" />
<vehicle id="type1_263" type="type1" route="nw" depart="1389" />
<vehicle id="type1_346" type="type1" route="sn" depart="1392" />
<vehicle id="type1_45" type="type1" route="ew" depart="1396" />
<vehicle id="type1_446" type="type1" route="ws" depart="1410" />
<vehicle id="type1_347" type="type1" route="sn" depart="1424" />
<vehicle id="type1_147" type="type1" route="se" depart="1431" />
<vehicle id="type1_148" type="type1" route="sw" depart="1452" />
<vehicle id="type1_149" type="type1" route="sn" depart="1473" />
<vehicle id="type1_264" type="type1" route="ns" depart="1473" />
<vehicle id="type1_79" type="type1" route="ns" depart="1487" />
<vehicle id="type1_150" type="type1" route="se" depart="1494" />
<vehicle id="type1_348" type="type1" route="we" depart="1521" />
<vehicle id="type1_151" type="type1" route="se" depart="1523" />
<vehicle id="type1_80" type="type1" route="we" depart="1528" />
<vehicle id="type1_447" type="type1" route="en" depart="1528" />
<vehicle id="type1_448" type="type1" route="ws" depart="1536" />
<vehicle id="type1_521" type="type1" route="ns" depart="1539" />
<vehicle id="type1_349" type="type1" route="se" depart="1542" />
<vehicle id="type1_152" type="type1" route="sn" depart="1546" />
<vehicle id="type1_449" type="type1" route="ew" depart="1552" />
<vehicle id="type1_376" type="type1" route="wn" depart="1563" />
<vehicle id="type1_450" type="type1" route="we" depart="1564" />
<vehicle id="type1_451" type="type1" route="we" depart="1580" />
<vehicle id="type1_452" type="type1" route="we" depart="1584" />
<vehicle id="type1_46" type="type1" route="ew" depart="1592" />
<vehicle id="type1_153" type="type1" route="se" depart="1592" />
<vehicle id="type1_265" type="type1" route="ne" depart="1592" />
<vehicle id="type1_154" type="type1" route="se" depart="1615" />
<vehicle id="type1_81" type="type1" route="sw" depart="1632" />
<vehicle id="type1_155" type="type1" route="se" depart="1638" />
<vehicle id="type1_350" type="type1" route="we" depart="1647" />
<vehicle id="type1_82" type="type1" route="we" depart="1656" />
<vehicle id="type1_156" type="type1" route="sn" depart="1661" />
<vehicle id="type1_351" type="type1" route="sw" depart="1668" />
<vehicle id="type1_453" type="type1" route="ns" depart="1668" />
<vehicle id="type1_157" type="type1" route="se" depart="1684" />
<vehicle id="type1_454" type="type1" route="wn" depart="1684" />
<vehicle id="type1_83" type="type1" route="ns" depart="1692" />
<vehicle id="type1_522" type="type1" route="ns" depart="1695" />
<vehicle id="type1_266" type="type1" route="ns" depart="1707" />
<vehicle id="type1_377" type="type1" route="we" depart="1710" />
<vehicle id="type1_455" type="type1" route="we" depart="1720" />
<vehicle id="type1_456" type="type1" route="ns" depart="1740" />
<vehicle id="type1_457" type="type1" route="ne" depart="1752" />
<vehicle id="type1_47" type="type1" route="sn" depart="1753" />
<vehicle id="type1_158" type="type1" route="se" depart="1753" />
<vehicle id="type1_458" type="type1" route="we" depart="1772" />
<vehicle id="type1_159" type="type1" route="sn" depart="1799" />
<vehicle id="type1_523" type="type1" route="ew" depart="1799" />
<vehicle id="type1_160" type="type1" route="sn" depart="1815" />
<vehicle id="type1_161" type="type1" route="se" depart="1830" />
<vehicle id="type1_267" type="type1" route="ew" depart="1830" />
<vehicle id="type1_459" type="type1" route="se" depart="1830" />
<vehicle id="type1_352" type="type1" route="ew" depart="1840" />
<vehicle id="type1_162" type="type1" route="sn" depart="1845" />
<vehicle id="type1_84" type="type1" route="we" depart="1848" />
<vehicle id="type1_48" type="type1" route="es" depart="1854" />
<vehicle id="type1_163" type="type1" route="sw" depart="1860" />
<vehicle id="type1_268" type="type1" route="ne" depart="1860" />
<vehicle id="type1_49" type="type1" route="sn" depart="1863" />
<vehicle id="type1_460" type="type1" route="we" depart="1872" />
<vehicle id="type1_164" type="type1" route="sn" depart="1875" />
<vehicle id="type1_269" type="type1" route="ne" depart="1875" />
<vehicle id="type1_85" type="type1" route="we" depart="1884" />
<vehicle id="type1_461" type="type1" route="wn" depart="1884" />
<vehicle id="type1_270" type="type1" route="ns" depart="1890" />
<vehicle id="type1_462" type="type1" route="we" depart="1896" />
<vehicle id="type1_165" type="type1" route="sn" depart="1905" />
<vehicle id="type1_271" type="type1" route="nw" depart="1905" />
<vehicle id="type1_166" type="type1" route="sw" depart="1920" />
<vehicle id="type1_272" type="type1" route="nw" depart="1920" />
<vehicle id="type1_353" type="type1" route="sn" depart="1920" />
<vehicle id="type1_463" type="type1" route="we" depart="1932" />
<vehicle id="type1_524" type="type1" route="ns" depart="1938" />
<vehicle id="type1_354" type="type1" route="sw" depart="1960" />
<vehicle id="type1_9" type="type1" route="en" depart="1965" />
<vehicle id="type1_167" type="type1" route="sn" depart="1965" />
<vehicle id="type1_168" type="type1" route="sn" depart="1980" />
<vehicle id="type1_378" type="type1" route="sn" depart="1980" />
<vehicle id="type1_50" type="type1" route="ew" depart="1989" />
<vehicle id="type1_169" type="type1" route="sn" depart="1995" />
<vehicle id="type1_464" type="type1" route="we" depart="2004" />
<vehicle id="type1_170" type="type1" route="sn" depart="2010" />
<vehicle id="type1_171" type="type1" route="se" depart="2025" />
<vehicle id="type1_273" type="type1" route="ns" depart="2025" />
<vehicle id="type1_465" type="type1" route="we" depart="2028" />
<vehicle id="type1_525" type="type1" route="we" depart="2030" />
<vehicle id="type1_466" type="type1" route="wn" depart="2034" />
<vehicle id="type1_172" type="type1" route="sn" depart="2040" />
<vehicle id="type1_274" type="type1" route="nw" depart="2040" />
<vehicle id="type1_173" type="type1" route="sn" depart="2055" />
<vehicle id="type1_86" type="type1" route="ns" depart="2058" />
<vehicle id="type1_355" type="type1" route="sn" depart="2060" />
<vehicle id="type1_10" type="type1" route="ew" depart="2064" />
<vehicle id="type1_174" type="type1" route="se" depart="2070" />
<vehicle id="type1_467" type="type1" route="wn" depart="2070" />
<vehicle id="type1_526" type="type1" route="wn" depart="2076" />
<vehicle id="type1_356" type="type1" route="sn" depart="2080" />
<vehicle id="type1_175" type="type1" route="sn" depart="2085" />
<vehicle id="type1_176" type="type1" route="sw" depart="2100" />
<vehicle id="type1_527" type="type1" route="ns" depart="2100" />
<vehicle id="type1_468" type="type1" route="we" depart="2108" />
<vehicle id="type1_177" type="type1" route="sn" depart="2114" />
<vehicle id="type1_275" type="type1" route="ns" depart="2114" />
<vehicle id="type1_379" type="type1" route="ws" depart="2123" />
<vehicle id="type1_178" type="type1" route="sw" depart="2128" />
<vehicle id="type1_276" type="type1" route="ne" depart="2128" />
<vehicle id="type1_179" type="type1" route="sn" depart="2142" />
<vehicle id="type1_180" type="type1" route="sn" depart="2156" />
<vehicle id="type1_181" type="type1" route="en" depart="2184" />
<vehicle id="type1_277" type="type1" route="ns" depart="2184" />
<vehicle id="type1_11" type="type1" route="es" depart="2190" />
<vehicle id="type1_380" type="type1" route="ns" depart="2192" />
<vehicle id="type1_182" type="type1" route="we" depart="2198" />
<vehicle id="type1_51" type="type1" route="ew" depart="2204" />
<vehicle id="type1_87" type="type1" route="en" depart="2205" />
<vehicle id="type1_183" type="type1" route="sn" depart="2212" />
<vehicle id="type1_469" type="type1" route="ns" depart="2220" />
<vehicle id="type1_184" type="type1" route="se" depart="2226" />
<vehicle id="type1_88" type="type1" route="ws" depart="2240" />
<vehicle id="type1_278" type="type1" route="ns" depart="2240" />
<vehicle id="type1_52" type="type1" route="ns" depart="2243" />
<vehicle id="type1_470" type="type1" route="ws" depart="2252" />
<vehicle id="type1_185" type="type1" route="sn" depart="2254" />
<vehicle id="type1_279" type="type1" route="ns" depart="2254" />
<vehicle id="type1_357" type="type1" route="ws" depart="2261" />
<vehicle id="type1_12" type="type1" route="ns" depart="2265" />
<vehicle id="type1_186" type="type1" route="sn" depart="2268" />
<vehicle id="type1_280" type="type1" route="ne" depart="2268" />
<vehicle id="type1_187" type="type1" route="sn" depart="2324" />
<vehicle id="type1_381" type="type1" route="sn" depart="2330" />
<vehicle id="type1_471" type="type1" route="we" depart="2340" />
<vehicle id="type1_472" type="type1" route="we" depart="2348" />
<vehicle id="type1_281" type="type1" route="ew" depart="2352" />
<vehicle id="type1_13" type="type1" route="ns" depart="2355" />
<vehicle id="type1_528" type="type1" route="ns" depart="2355" />
<vehicle id="type1_188" type="type1" route="sn" depart="2366" />
<vehicle id="type1_282" type="type1" route="nw" depart="2366" />
<vehicle id="type1_283" type="type1" route="ns" depart="2380" />
<vehicle id="type1_473" type="type1" route="ws" depart="2396" />
<vehicle id="type1_89" type="type1" route="se" depart="2420" />
<vehicle id="type1_474" type="type1" route="sn" depart="2430" />
<vehicle id="type1_189" type="type1" route="se" depart="2432" />
<vehicle id="type1_284" type="type1" route="nw" depart="2432" />
<vehicle id="type1_53" type="type1" route="ew" depart="2436" />
<vehicle id="type1_190" type="type1" route="sw" depart="2448" />
<vehicle id="type1_475" type="type1" route="we" depart="2450" />
<vehicle id="type1_476" type="type1" route="we" depart="2455" />
<vehicle id="type1_90" type="type1" route="wn" depart="2460" />
<vehicle id="type1_191" type="type1" route="sn" depart="2464" />
<vehicle id="type1_285" type="type1" route="ne" depart="2464" />
<vehicle id="type1_477" type="type1" route="we" depart="2475" />
<vehicle id="type1_54" type="type1" route="sw" depart="2481" />
<vehicle id="type1_55" type="type1" route="we" depart="2490" />
<vehicle id="type1_478" type="type1" route="we" depart="2505" />
<vehicle id="type1_192" type="type1" route="sn" depart="2512" />
<vehicle id="type1_286" type="type1" route="ns" depart="2512" />
<vehicle id="type1_529" type="type1" route="se" depart="2520" />
<vehicle id="type1_193" type="type1" route="sn" depart="2528" />
<vehicle id="type1_479" type="type1" route="se" depart="2535" />
<vehicle id="type1_91" type="type1" route="ws" depart="2555" />
<vehicle id="type1_287" type="type1" route="nw" depart="2560" />
<vehicle id="type1_194" type="type1" route="se" depart="2576" />
<vehicle id="type1_195" type="type1" route="sn" depart="2592" />
<vehicle id="type1_288" type="type1" route="ns" depart="2592" />
<vehicle id="type1_196" type="type1" route="sw" depart="2608" />
<vehicle id="type1_480" type="type1" route="we" depart="2615" />
<vehicle id="type1_481" type="type1" route="sn" depart="2620" />
<vehicle id="type1_197" type="type1" route="sn" depart="2624" />
<vehicle id="type1_198" type="type1" route="sn" depart="2640" />
<vehicle id="type1_199" type="type1" route="se" depart="2656" />
<vehicle id="type1_289" type="type1" route="nw" depart="2656" />
<vehicle id="type1_200" type="type1" route="sw" depart="2672" />
<vehicle id="type1_290" type="type1" route="ns" depart="2672" />
<vehicle id="type1_56" type="type1" route="ne" depart="2697" />
<vehicle id="type1_291" type="type1" route="ns" depart="2700" />
<vehicle id="type1_482" type="type1" route="se" depart="2706" />
<vehicle id="type1_530" type="type1" route="we" depart="2717" />
<vehicle id="type1_483" type="type1" route="we" depart="2718" />
<vehicle id="type1_14" type="type1" route="ns" depart="2727" />
<vehicle id="type1_484" type="type1" route="ws" depart="2730" />
<vehicle id="type1_92" type="type1" route="ew" depart="2740" />
<vehicle id="type1_292" type="type1" route="ne" depart="2740" />
<vehicle id="type1_485" type="type1" route="ne" depart="2754" />
<vehicle id="type1_293" type="type1" route="ne" depart="2760" />
<vehicle id="type1_382" type="type1" route="nw" depart="2760" />
<vehicle id="type1_294" type="type1" route="ne" depart="2780" />
<vehicle id="type1_486" type="type1" route="ws" depart="2796" />
<vehicle id="type1_295" type="type1" route="ns" depart="2800" />
<vehicle id="type1_93" type="type1" route="ne" depart="2812" />
<vehicle id="type1_201" type="type1" route="sw" depart="2820" />
<vehicle id="type1_487" type="type1" route="we" depart="2820" />
<vehicle id="type1_57" type="type1" route="ew" depart="2830" />
<vehicle id="type1_531" type="type1" route="ne" depart="2836" />
<vehicle id="type1_202" type="type1" route="sn" depart="2860" />
<vehicle id="type1_296" type="type1" route="ns" depart="2860" />
<vehicle id="type1_488" type="type1" route="ws" depart="2868" />
<vehicle id="type1_203" type="type1" route="sw" depart="2880" />
<vehicle id="type1_297" type="type1" route="ns" depart="2880" />
<vehicle id="type1_58" type="type1" route="sn" depart="2882" />
<vehicle id="type1_94" type="type1" route="we" depart="2884" />
<vehicle id="type1_489" type="type1" route="ns" depart="2886" />
<vehicle id="type1_15" type="type1" route="ns" depart="2889" />
<vehicle id="type1_358" type="type1" route="sw" depart="2895" />
<vehicle id="type1_204" type="type1" route="sn" depart="2900" />
<vehicle id="type1_359" type="type1" route="se" depart="2910" />
<vehicle id="type1_205" type="type1" route="sn" depart="2920" />
<vehicle id="type1_298" type="type1" route="nw" depart="2920" />
<vehicle id="type1_490" type="type1" route="ws" depart="2928" />
<vehicle id="type1_532" type="type1" route="ns" depart="2938" />
<vehicle id="type1_299" type="type1" route="nw" depart="2940" />
<vehicle id="type1_360" type="type1" route="se" depart="2940" />
<vehicle id="type1_300" type="type1" route="ns" depart="2960" />
<vehicle id="type1_95" type="type1" route="we" depart="2996" />
<vehicle id="type1_206" type="type1" route="sn" depart="3000" />
<vehicle id="type1_383" type="type1" route="ns" depart="3000" />
<vehicle id="type1_491" type="type1" route="sn" depart="3000" />
<vehicle id="type1_533" type="type1" route="we" depart="3000" />
<vehicle id="type1_492" type="type1" route="we" depart="3007" />
<vehicle id="type1_59" type="type1" route="ew" depart="3010" />
<vehicle id="type1_207" type="type1" route="sn" depart="3015" />
<vehicle id="type1_60" type="type1" route="we" depart="3030" />
<vehicle id="type1_208" type="type1" route="sn" depart="3030" />