<routes>
            <vType id="type1" accel="0.8" decel="4.5" sigma="0.5" length="5" maxSpeed="70"/>
            <vType id="rescue" vClass="emergency" speedFactor="1.5" guiShape="emergency">
                <param key="has.bluelight.device" value="true"/>
            </vType>
            <route id="ne" edges="ni eo"/>
            <route id="ns" edges="ni so"/>
            <route id="nw" edges="ni wo"/>
            <route id="en" edges="ei no"/>
            <route id="es" edges="ei so"/>
            <route id="ew" edges="ei wo"/>
            <route id="sn" edges="si no"/>
            <route id="se" edges="si eo"/>
            <route id="sw" edges="si wo"/>
            <route id="wn" edges="wi no"/>
            <route id="we" edges="wi eo"/>
            <route id="ws" edges="wi so"/>
<vehicle id="type1_233" type="type1" route="ns" depart="0" />
<vehicle id="type1_386" type="type1" route="ns" depart="4" />
<vehicle id="type1_65" type="type1" route="we" depart="8" />
<vehicle id="type1_103" type="type1" route="se" depart="9" />
<vehicle id="type1_234" type="type1" route="nw" depart="9" />
<vehicle id="type1_387" type="type1" route="we" depart="11" />
<vehicle id="type1_19" type="type1" route="sn" depart="12" />
<vehicle id="type1_388" type="type1" route="ws" depart="14" />
<vehicle id="type1_20" type="type1" route="sn" depart="15" />
<vehicle id="type1_104" type="type1" route="sn" depart="18" />
<vehicle id="type1_235" type="type1" route="ns" depart="18" />
<vehicle id="type1_389" type="type1" route="we" depart="18" />
<vehicle id="type1_317" type="type1" route="sn" depart="23" />
<vehicle id="type1_66" type="type1" route="ne" depart="24" />
<vehicle id="type1_236" type="type1" route="nw" depart="27" />
<vehicle id="type1_390" type="type1" route="ns" depart="34" />
<vehicle id="type1_1" type="type1" route="ew" depart="35" />
<vehicle id="type1_21" type="type1" route="sn" depart="37" />
<vehicle id="type1_105" type="type1" route="sw" depart="37" />
<vehicle id="type1_237" type="type1" route="nw" depart="37" />
<vehicle id="type1_391" type="type1" route="ew" depart="38" />
<vehicle id="type1_392" type="type1" route="ew" depart="39" />
<vehicle id="type1_318" type="type1" route="we" depart="40" />
<vehicle id="type1_106" type="type1" route="se" depart="46" />
<vehicle id="type1_238" type="type1" route="nw" depart="46" />
<vehicle id="type1_393" type="type1" route="ws" depart="46" />
<vehicle id="type1_513" type="type1" route="ws" depart="48" />
<vehicle id="type1_319" type="type1" route="ws" depart="51" />
<vehicle id="type1_365" type="type1" route="ew" depart="51" />
<vehicle id="type1_2" type="type1" route="ns" depart="55" />
<vehicle id="type1_67" type="type1" route="ne" depart="56" />
<vehicle id="type1_394" type="type1" route="we" depart="57" />
<vehicle id="type1_3" type="type1" route="ns" depart="61" />
<vehicle id="type1_107" type="type1" route="sn" depart="64" />
<vehicle id="type1_395" type="type1" route="we" depart="64" />
<vehicle id="type1_108" type="type1" route="se" depart="74" />
<vehicle id="type1_396" type="type1" route="en" depart="74" />
<vehicle id="type1_109" type="type1" route="sn" depart="75" />
<vehicle id="type1_239" type="type1" route="nw" depart="75" />
<vehicle id="type1_397" type="type1" route="ws" depart="76" />
<vehicle id="type1_22" type="type1" route="ew" depart="78" />
<vehicle id="type1_23" type="type1" route="sw" depart="79" />
<vehicle id="type1_110" type="type1" route="sn" depart="82" />
<vehicle id="type1_111" type="type1" route="sw" depart="85" />
<vehicle id="type1_240" type="type1" route="ns" depart="89" />
<vehicle id="type1_398" type="type1" route="sn" depart="91" />
<vehicle id="type1_241" type="type1" route="nw" depart="92" />
<vehicle id="type1_68" type="type1" route="ws" depart="96" />
<vehicle id="type1_112" type="type1" route="se" depart="99" />
<vehicle id="type1_113" type="type1" route="sn" depart="103" />
<vehicle id="type1_242" type="type1" route="ns" depart="103" />
<vehicle id="type1_399" type="type1" route="ws" depart="108" />
<vehicle id="type1_400" type="type1" route="we" depart="110" />
<vehicle id="type1_401" type="type1" route="we" depart="112" />
<vehicle id="type1_114" type="type1" route="sn" depart="113" />
<vehicle id="type1_69" type="type1" route="we" depart="114" />
<vehicle id="type1_402" type="type1" route="we" depart="116" />
<vehicle id="type1_243" type="type1" route="ns" depart="117" />
<vehicle id="type1_366" type="type1" route="sw" depart="117" />
<vehicle id="type1_115" type="type1" route="se" depart="120" />
<vehicle id="type1_244" type="type1" route="ns" depart="120" />
<vehicle id="type1_403" type="type1" route="we" depart="120" />
<vehicle id="type1_116" type="type1" route="se" depart="124" />
<vehicle id="type1_404" type="type1" route="ws" depart="125" />
<vehicle id="type1_4" type="type1" route="ns" depart="126" />
<vehicle id="type1_320" type="type1" route="se" depart="126" />
<vehicle id="type1_245" type="type1" route="ns" depart="127" />
<vehicle id="type1_514" type="type1" route="ns" depart="130" />
<vehicle id="type1_405" type="type1" route="we" depart="131" />
<vehicle id="type1_406" type="type1" route="ns" depart="132" />
<vehicle id="type1_117" type="type1" route="se" depart="134" />
<vehicle id="type1_70" type="type1" route="ws" depart="136" />
<vehicle id="type1_407" type="type1" route="we" depart="140" />
<vehicle id="type1_118" type="type1" route="sn" depart="141" />
<vehicle id="type1_321" type="type1" route="we" depart="143" />
<vehicle id="type1_367" type="type1" route="ws" depart="143" />
<vehicle id="type1_24" type="type1" route="sw" depart="145" />
<vehicle id="type1_322" type="type1" route="ew" depart="147" />
<vehicle id="type1_119" type="type1" route="sn" depart="148" />
<vehicle id="type1_408" type="type1" route="ws" depart="148" />
<vehicle id="type1_409" type="type1" route="sn" depart="151" />
<vehicle id="type1_120" type="type1" route="sn" depart="153" />
<vehicle id="type1_368" type="type1" route="sn" depart="154" />
<vehicle id="type1_410" type="type1" route="sn" depart="156" />
<vehicle id="type1_411" type="type1" route="ns" depart="157" />
<vehicle id="type1_515" type="type1" route="wn" depart="158" />
<vehicle id="type1_121" type="type1" route="sn" depart="161" />
<vehicle id="type1_516" type="type1" route="ne" depart="162" />
<vehicle id="type1_25" type="type1" route="sn" depart="165" />
<vehicle id="type1_26" type="type1" route="ew" depart="167" />
<vehicle id="type1_412" type="type1" route="we" depart="167" />
<vehicle id="type1_122" type="type1" route="sw" depart="168" />
<vehicle id="type1_246" type="type1" route="ns" depart="168" />
<vehicle id="type1_413" type="type1" route="en" depart="170" />
<vehicle id="type1_5" type="type1" route="we" depart="172" />
<vehicle id="type1_247" type="type1" route="nw" depart="172" />
<vehicle id="type1_71" type="type1" route="we" depart="173" />
<vehicle id="type1_414" type="type1" route="we" depart="175" />
<vehicle id="type1_123" type="type1" route="se" depart="176" />
<vehicle id="type1_248" type="type1" route="nw" depart="180" />
<vehicle id="type1_415" type="type1" route="we" depart="180" />
<vehicle id="type1_323" type="type1" route="en" depart="181" />
<vehicle id="type1_124" type="type1" route="sn" depart="183" />
<vehicle id="type1_249" type="type1" route="ns" depart="183" />
<vehicle id="type1_416" type="type1" route="ns" depart="183" />
<vehicle id="type1_125" type="type1" route="sn" depart="187" />
<vehicle id="type1_324" type="type1" route="sn" depart="190" />
<vehicle id="type1_369" type="type1" route="we" depart="190" />
<vehicle id="type1_417" type="type1" route="we" depart="190" />
<vehicle id="type1_72" type="type1" route="we" depart="191" />
<vehicle id="type1_250" type="type1" route="nw" depart="191" />
<vehicle id="type1_27" type="type1" route="ew" depart="192" />
<vehicle id="type1_418" type="type1" route="wn" depart="192" />
<vehicle id="type1_73" type="type1" route="we" depart="193" />
<vehicle id="type1_517" type="type1" route="ew" depart="194" />
<vehicle id="type1_419" type="type1" route="ns" depart="197" />
<vehicle id="type1_251" type="type1" route="nw" depart="198" />
<vehicle id="type1_420" type="type1" route="ew" depart="198" />
<vehicle id="type1_126" type="type1" route="se" depart="202" />
<vehicle id="type1_370" type="type1" route="we" depart="204" />
<vehicle id="type1_6" type="type1" route="ew" depart="205" />
<vehicle id="type1_127" type="type1" route="sn" depart="206" />
<vehicle id="type1_74" type="type1" route="nw" depart="207" />
<vehicle id="type1_325" type="type1" route="sn" depart="208" />
<vehicle id="type1_421" type="type1" route="we" depart="210" />
<vehicle id="type1_7" type="type1" route="sn" depart="213" />
<vehicle id="type1_128" type="type1" route="sn" depart="213" />
<vehicle id="type1_326" type="type1" route="se" depart="213" />
<vehicle id="type1_422" type="type1" route="ns" depart="213" />
<vehicle id="type1_423" type="type1" route="ws" depart="213" />
<vehicle id="type1_424" type="type1" route="sn" depart="216" />
<vehicle id="type1_129" type="type1" route="sn" depart="217" />
<vehicle id="type1_252" type="type1" route="nw" depart="217" />
<vehicle id="type1_425" type="type1" route="ws" depart="219" />
<vehicle id="type1_426" type="type1" route="es" depart="220" />
<vehicle id="type1_253" type="type1" route="ns" depart="221" />
<vehicle id="type1_518" type="type1" route="ns" depart="222" />
<vehicle id="type1_427" type="type1" route="ws" depart="223" />
<vehicle id="type1_130" type="type1" route="se" depart="225" />
<vehicle id="type1_254" type="type1" route="ns" depart="225" />
<vehicle id="type1_371" type="type1" route="ew" depart="225" />
<vehicle id="type1_28" type="type1" route="se" depart="226" />
<vehicle id="type1_327" type="type1" route="se" depart="227" />
<vehicle id="type1_131" type="type1" route="sw" depart="228" />
<vehicle id="type1_428" type="type1" route="we" depart="228" />
<vehicle id="type1_429" type="type1" route="we" depart="232" />
<vehicle id="type1_328" type="type1" route="se" depart="235" />
<vehicle id="type1_29" type="type1" route="ew" depart="236" />
<vehicle id="type1_132" type="type1" route="sn" depart="238" />
<vehicle id="type1_30" type="type1" route="en" depart="240" />
<vehicle id="type1_329" type="type1" route="sn" depart="240" />
<vehicle id="type1_372" type="type1" route="we" depart="240" />
<vehicle id="type1_430" type="type1" route="we" depart="240" />
<vehicle id="type1_31" type="type1" route="ew" depart="241" />
<vehicle id="type1_330" type="type1" route="se" depart="242" />
<vehicle id="type1_431" type="type1" route="ws" depart="243" />
<vehicle id="type1_133" type="type1" route="sw" depart="244" />
<vehicle id="type1_32" type="type1" route="ws" depart="245" />
<vehicle id="type1_75" type="type1" route="we" depart="245" />
<vehicle id="type1_519" type="type1" route="ws" depart="247" />
<vehicle id="type1_33" type="type1" route="en" depart="248" />
<vehicle id="type1_432" type="type1" route="we" depart="249" />
<vehicle id="type1_76" type="type1" route="we" depart="250" />
<vehicle id="type1_373" type="type1" route="sw" depart="250" />
<vehicle id="type1_433" type="type1" route="wn" depart="250" />
<vehicle id="type1_331" type="type1" route="sn" depart="252" />
<vehicle id="type1_134" type="type1" route="sn" depart="254" />
<vehicle id="type1_34" type="type1" route="en" depart="255" />
<vehicle id="type1_255" type="type1" route="ne" depart="257" />
<vehicle id="type1_332" type="type1" route="sn" depart="260" />
<vehicle id="type1_434" type="type1" route="we" depart="260" />
<vehicle id="type1_333" type="type1" route="se" depart="262" />
<vehicle id="type1_35" type="type1" route="se" depart="263" />
<vehicle id="type1_36" type="type1" route="ew" depart="266" />
<vehicle id="type1_37" type="type1" route="ew" depart="267" />
<vehicle id="type1_135" type="type1" route="sw" depart="267" />
<vehicle id="type1_334" type="type1" route="sn" depart="267" />
<vehicle id="type1_38" type="type1" route="sn" depart="268" />
<vehicle id="type1_435" type="type1" route="we" depart="268" />
<vehicle id="type1_136" type="type1" route="se" depart="270" />
<vehicle id="type1_436" type="type1" route="ns" depart="271" />
<vehicle id="type1_39" type="type1" route="se" depart="272" />
<vehicle id="type1_335" type="type1" route="wn" depart="272" />
<vehicle id="type1_437" type="type1" route="ws" depart="273" />
<vehicle id="type1_137" type="type1" route="sn" depart="277" />
<vehicle id="type1_256" type="type1" route="ne" depart="277" />
<vehicle id="type1_138" type="type1" route="sn" depart="280" />
<vehicle id="type1_336" type="type1" route="we" depart="280" />
<vehicle id="type1_337" type="type1" route="es" depart="282" />
<vehicle id="type1_438" type="type1" route="nw" depart="283" />
<vehicle id="type1_40" type="type1" route="ew" depart="285" />
<vehicle id="type1_139" type="type1" route="sw" depart="286" />
<vehicle id="type1_257" type="type1" route="ns" depart="286" />
<vehicle id="type1_338" type="type1" route="ew" depart="287" />
<vehicle id="type1_41" type="type1" route="se" depart="288" />
<vehicle id="type1_439" type="type1" route="we" depart="289" />
<vehicle id="type1_140" type="type1" route="sw" depart="290" />
<vehicle id="type1_258" type="type1" route="nw" depart="290" />
<vehicle id="type1_339" type="type1" route="se" depart="290" />
<vehicle id="type1_440" type="type1" route="wn" depart="291" />
<vehicle id="type1_340" type="type1" route="sn" depart="292" />
<vehicle id="type1_141" type="type1" route="sn" depart="296" />
<vehicle id="type1_42" type="type1" route="sn" depart="298" />
<vehicle id="type1_142" type="type1" route="sn" depart="299" />
<vehicle id="type1_259" type="type1" route="ns" depart="299" />
<vehicle id="type1_260" type="type1" route="nw" depart="300" />
<vehicle id="type1_8" type="type1" route="ns" depart="304" />
<vehicle id="type1_441" type="type1" route="wn" depart="307" />
<vehicle id="type1_77" type="type1" route="ew" depart="308" />
<vehicle id="type1_143" type="type1" route="se" depart="310" />
<vehicle id="type1_442" type="type1" route="ws" depart="310" />
<vehicle id="type1_520" type="type1" route="ns" depart="310" />
<vehicle id="type1_341" type="type1" route="sn" depart="312" />
<vehicle id="type1_144" type="type1" route="sn" depart="315" />
<vehicle id="type1_342" type="type1" route="we" depart="316" />
<vehicle id="type1_78" type="type1" route="ws" depart="317" />
<vehicle id="type1_43" type="type1" route="sn" depart="321" />
<vehicle id="type1_145" type="type1" route="sn" depart="321" />
<vehicle id="type1_261" type="type1" route="ns" depart="326" />
<vehicle id="type1_374" type="type1" route="we" depart="328" />
<vehicle id="type1_343" type="type1" route="sn" depart="332" />
<vehicle id="type1_443" type="type1" route="we" depart="333" />
<vehicle id="type1_344" type="type1" route="sw" depart="340" />
<vehicle id="type1_146" type="type1" route="se" depart="342" />
<vehicle id="type1_262" type="type1" route="ns" depart="342" />
<vehicle id="type1_444" type="type1" route="ws" depart="343" />
<vehicle id="type1_345" type="type1" route="sn" depart="344" />
<vehicle id="type1_375" type="type1" route="sw" depart="344" />
<vehicle id="type1_44" type="type1" route="en" depart="345" />
<vehicle id="type1_445" type="type1" route="we" depart="345" />
<vehicle id="type1_263" type="type1" route="nw" depart="347" />
<vehicle id="type1_346" type="type1" route="sn" depart="348" />
<vehicle id="type1_45" type="type1" route="ew" depart="349" />
<vehicle id="type1_446" type="type1" route="ws" depart="352" />
<vehicle id="type1_347" type="type1" route="sn" depart="356" />
<vehicle id="type1_147" type="type1" route="se" depart="357" />
<vehicle id="type1_148" type="type1" route="sw" depart="363" />
<vehicle id="type1_149" type="type1" route="sn" depart="368" />
<vehicle id="type1_264" type="type1" route="ns" depart="368" />
<vehicle id="type1_79" type="type1" route="ns" depart="371" />
<vehicle id="type1_150" type="type1" route="se" depart="373" />
<vehicle id="type1_151" type="type1" route="se" depart="380" />
<vehicle id="type1_348" type="type1" route="we" depart="380" />
<vehicle id="type1_80" type="type1" route="we" depart="382" />
<vehicle id="type1_447" type="type1" route="en" depart="382" />
<vehicle id="type1_448" type="type1" route="ws" depart="384" />
<vehicle id="type1_521" type="type1" route="ns" depart="384" />
<vehicle id="type1_349" type="type1" route="se" depart="385" />
<vehicle id="type1_152" type="type1" route="sn" depart="386" />
<vehicle id="type1_449" type="type1" route="ew" depart="388" />
<vehicle id="type1_376" type="type1" route="wn" depart="390" />
<vehicle id="type1_450" type="type1" route="we" depart="391" />
<vehicle id="type1_451" type="type1" route="we" depart="395" />
<vehicle id="type1_452" type="type1" route="we" depart="396" />
<vehicle id="type1_46" type="type1" route="ew" depart="398" />
<vehicle id="type1_153" type="type1" route="se" depart="398" />
<vehicle id="type1_265" type="type1" route="ne" depart="398" />
<vehicle id="type1_154" type="type1" route="se" depart="403" />
<vehicle id="type1_81" type="type1" route="sw" depart="408" />
<vehicle id="type1_155" type="type1" route="se" depart="409" />
<vehicle id="type1_350" type="type1" route="we" depart="411" />
<vehicle id="type1_82" type="type1" route="we" depart="414" />
<vehicle id="type1_156" type="type1" route="sn" depart="415" />
<vehicle id="type1_351" type="type1" route="sw" depart="417" />
<vehicle id="type1_453" type="type1" route="ns" depart="417" />
<vehicle id="type1_157" type="type1" route="se" depart="421" />
<vehicle id="type1_454" type="type1" route="wn" depart="421" />
<vehicle id="type1_83" type="type1" route="ns" depart="423" />
<vehicle id="type1_522" type="type1" route="ns" depart="423" />
<vehicle id="type1_266" type="type1" route="ns" depart="426" />
<vehicle id="type1_377" type="type1" route="we" depart="427" />
<vehicle id="type1_455" type="type1" route="we" depart="430" />
<vehicle id="type1_456" type="type1" route="ns" depart="435" />
<vehicle id="type1_47" type="type1" route="sn" depart="438" />
<vehicle id="type1_158" type="type1" route="se" depart="438" />
<vehicle id="type1_457" type="type1" route="ne" depart="438" />
<vehicle id="type1_458" type="type1" route="we" depart="443" />
<vehicle id="type1_159" type="type1" route="sn" depart="449" />
<vehicle id="type1_523" type="type1" route="ew" depart="449" />
<vehicle id="type1_160" type="type1" route="sn" depart="453" />
<vehicle id="type1_161" type="type1" route="se" depart="457" />
<vehicle id="type1_267" type="type1" route="ew" depart="457" />
<vehicle id="type1_459" type="type1" route="se" depart="457" />
<vehicle id="type1_352" type="type1" route="ew" depart="460" />
<vehicle id="type1_162" type="type1" route="sn" depart="461" />
<vehicle id="type1_84" type="type1" route="we" depart="462" />
<vehicle id="type1_48" type="type1" route="es" depart="463" />
<vehicle id="type1_49" type="type1" route="sn" depart="465" />
<vehicle id="type1_163" type="type1" route="sw" depart="465" />
<vehicle id="type1_268" type="type1" route="ne" depart="465" />
<vehicle id="type1_164" type="type1" route="sn" depart="468" />
<vehicle id="type1_269" type="type1" route="ne" depart="468" />
<vehicle id="type1_460" type="type1" route="we" depart="468" />
<vehicle id="type1_85" type="type1" route="we" depart="471" />
<vehicle id="type1_461" type="type1" route="wn" depart="471" />
<vehicle id="type1_270" type="type1" route="ns" depart="472" />
<vehicle id="type1_462" type="type1" route="we" depart="474" />
<vehicle id="type1_165" type="type1" route="sn" depart="476" />
<vehicle id="type1_271" type="type1" route="nw" depart="476" />
<vehicle id="type1_166" type="type1" route="sw" depart="480" />
<vehicle id="type1_272" type="type1" route="nw" depart="480" />
<vehicle id="type1_353" type="type1" route="sn" depart="480" />
<vehicle id="type1_463" type="type1" route="we" depart="483" />
<vehicle id="type1_524" type="type1" route="ns" depart="484" />
<vehicle id="type1_354" type="type1" route="sw" depart="490" />
<vehicle id="type1_9" type="type1" route="en" depart="491" />
<vehicle id="type1_167" type="type1" route="sn" depart="491" />
<vehicle id="type1_168" type="type1" route="sn" depart="495" />
<vehicle id="type1_378" type="type1" route="sn" depart="495" />
<vehicle id="type1_50" type="type1" route="ew" depart="497" />
<vehicle id="type1_169" type="type1" route="sn" depart="498" />
<vehicle id="type1_464" type="type1" route="we" depart="501" />
<vehicle id="type1_170" type="type1" route="sn" depart="502" />
<vehicle id="type1_171" type="type1" route="se" depart="506" />
<vehicle id="type1_273" type="type1" route="ns" depart="506" />
<vehicle id="type1_465" type="type1" route="we" depart="507" />
<vehicle id="type1_525" type="type1" route="we" depart="507" />
<vehicle id="type1_466" type="type1" route="wn" depart="508" />
<vehicle id="type1_172" type="type1" route="sn" depart="510" />
<vehicle id="type1_274" type="type1" route="nw" depart="510" />
<vehicle id="type1_173" type="type1" route="sn" depart="513" />
<vehicle id="type1_86" type="type1" route="ns" depart="514" />
<vehicle id="type1_355" type="type1" route="sn" depart="515" />
<vehicle id="type1_10" type="type1" route="ew" depart="516" />
<vehicle id="type1_174" type="type1" route="se" depart="517" />
<vehicle id="type1_467" type="type1" route="wn" depart="517" />
<vehicle id="type1_526" type="type1" route="wn" depart="519" />
<vehicle id="type1_356" type="type1" route="sn" depart="520" />
<vehicle id="type1_175" type="type1" route="sn" depart="521" />
<vehicle id="type1_176" type="type1" route="sw" depart="525" />
<vehicle id="type1_527" type="type1" route="ns" depart="525" />
<vehicle id="type1_468" type="type1" route="we" depart="527" />
<vehicle id="type1_177" type="type1" route="sn" depart="528" />
<vehicle id="type1_275" type="type1" route="ns" depart="528" />
<vehicle id="type1_379" type="type1" route="ws" depart="530" />
<vehicle id="type1_178" type="type1" route="sw" depart="532" />
<vehicle id="type1_276" type="type1" route="ne" depart="532" />
<vehicle id="type1_179" type="type1" route="sn" depart="535" />
<vehicle id="type1_180" type="type1" route="sn" depart="539" />
<vehicle id="type1_181" type="type1" route="en" depart="546" />
<vehicle id="type1_277" type="type1" route="ns" depart="546" />
<vehicle id="type1_11" type="type1" route="es" depart="547" />
<vehicle id="type1_380" type="type1" route="ns" depart="548" />
<vehicle id="type1_182" type="type1" route="we" depart="549" />
<vehicle id="type1_51" type="type1" route="ew" depart="551" />
<vehicle id="type1_87" type="type1" route="en" depart="551" />
<vehicle id="type1_183" type="type1" route="sn" depart="553" />
<vehicle id="type1_469" type="type1" route="ns" depart="555" />
<vehicle id="type1_184" type="type1" route="se" depart="556" />
<vehicle id="type1_52" type="type1" route="ns" depart="560" />
<vehicle id="type1_88" type="type1" route="ws" depart="560" />
<vehicle id="type1_278" type="type1" route="ns" depart="560" />
<vehicle id="type1_185" type="type1" route="sn" depart="563" />
<vehicle id="type1_279" type="type1" route="ns" depart="563" />
<vehicle id="type1_470" type="type1" route="ws" depart="563" />
<vehicle id="type1_357" type="type1" route="ws" depart="565" />
<vehicle id="type1_12" type="type1" route="ns" depart="566" />
<vehicle id="type1_186" type="type1" route="sn" depart="567" />
<vehicle id="type1_280" type="type1" route="ne" depart="567" />
<vehicle id="type1_187" type="type1" route="sn" depart="581" />
<vehicle id="type1_381" type="type1" route="sn" depart="582" />
<vehicle id="type1_471" type="type1" route="we" depart="585" />
<vehicle id="type1_472" type="type1" route="we" depart="587" />
<vehicle id="type1_13" type="type1" route="ns" depart="588" />
<vehicle id="type1_281" type="type1" route="ew" depart="588" />
<vehicle id="type1_528" type="type1" route="ns" depart="588" />
<vehicle id="type1_188" type="type1" route="sn" depart="591" />
<vehicle id="type1_282" type="type1" route="nw" depart="591" />
<vehicle id="type1_283" type="type1" route="ns" depart="595" />
<vehicle id="type1_473" type="type1" route="ws" depart="599" />
<vehicle id="type1_89" type="type1" route="se" depart="605" />
<vehicle id="type1_474" type="type1" route="sn" depart="607" />
<vehicle id="type1_189" type="type1" route="se" depart="608" />
<vehicle id="type1_284" type="type1" route="nw" depart="608" />
<vehicle id="type1_53" type="type1" route="ew" depart="609" />
<vehicle id="type1_190" type="type1" route="sw" depart="612" />
<vehicle id="type1_475" type="type1" route="we" depart="612" />
<vehicle id="type1_476" type="type1" route="we" depart="613" />
<vehicle id="type1_90" type="type1" route="wn" depart="615" />
<vehicle id="type1_191" type="type1" route="sn" depart="616" />
<vehicle id="type1_285" type="type1" route="ne" depart="616" />
<vehicle id="type1_477" type="type1" route="we" depart="618" />
<vehicle id="type1_54" type="type1" route="sw" depart="620" />
<vehicle id="type1_55" type="type1" route="we" depart="622" />
<vehicle id="type1_478" type="type1" route="we" depart="626" />
<vehicle id="type1_192" type="type1" route="sn" depart="628" />
<vehicle id="type1_286" type="type1" route="ns" depart="628" />
<vehicle id="type1_529" type="type1" route="se" depart="630" />
<vehicle id="type1_193" type="type1" route="sn" depart="632" />
<vehicle id="type1_479" type="type1" route="se" depart="633" />
<vehicle id="type1_91" type="type1" route="ws" depart="638" />
<vehicle id="type1_287" type="type1" route="nw" depart="640" />
<vehicle id="type1_194" type="type1" route="se" depart="644" />
<vehicle id="type1_195" type="type1" route="sn" depart="648" />
<vehicle id="type1_288" type="type1" route="ns" depart="648" />
<vehicle id="type1_196" type="type1" route="sw" depart="652" />
<vehicle id="type1_480" type="type1" route="we" depart="653" />
<vehicle id="type1_481" type="type1" route="sn" depart="655" />
<vehicle id="type1_197" type="type1" route="sn" depart="656" />
<vehicle id="type1_198" type="type1" route="sn" depart="660" />
<vehicle id="type1_199" type="type1" route="se" depart="664" />
<vehicle id="type1_289" type="type1" route="nw" depart="664" />
<vehicle id="type1_200" type="type1" route="sw" depart="668" />
<vehicle id="type1_290" type="type1" route="ns" depart="668" />
<vehicle id="type1_56" type="type1" route="ne" depart="674" />
<vehicle id="type1_291" type="type1" route="ns" depart="675" />
<vehicle id="type1_482" type="type1" route="se" depart="676" />
<vehicle id="type1_483" type="type1" route="we" depart="679" />
<vehicle id="type1_530" type="type1" route="we" depart="679" />
<vehicle id="type1_14" type="type1" route="ns" depart="681" />
<vehicle id="type1_484" type="type1" route="ws" depart="682" />
<vehicle id="type1_92" type="type1" route="ew" depart="685" />
<vehicle id="type1_292" type="type1" route="ne" depart="685" />
<vehicle id="type1_485" type="type1" route="ne" depart="688" />
<vehicle id="type1_293" type="type1" route="ne" depart="690" />
<vehicle id="type1_382" type="type1" route="nw" depart="690" />
<vehicle id="type1_294" type="type1" route="ne" depart="695" />
<vehicle id="type1_486" type="type1" route="ws" depart="699" />
<vehicle id="type1_295" type="type1" route="ns" depart="700" />
<vehicle id="type1_93" type="type1" route="ne" depart="703" />
<vehicle id="type1_201" type="type1" route="sw" depart="705" />
<vehicle id="type1_487" type="type1" route="we" depart="705" />
<vehicle id="type1_57" type="type1" route="ew" depart="707" />
<vehicle id="type1_531" type="type1" route="ne" depart="709" />
<vehicle id="type1_202" type="type1" route="sn" depart="715" />
<vehicle id="type1_296" type="type1" route="ns" depart="715" />
<vehicle id="type1_488" type="type1" route="ws" depart="717" />
<vehicle id="type1_58" type="type1" route="sn" depart="720" />
<vehicle id="type1_203" type="type1" route="sw" depart="720" />
<vehicle id="type1_297" type="type1" route="ns" depart="720" />
<vehicle id="type1_94" type="type1" route="we" depart="721" />
<vehicle id="type1_489" type="type1" route="ns" depart="721" />
<vehicle id="type1_15" type="type1" route="ns" depart="722" />
<vehicle id="type1_358" type="type1" route="sw" depart="723" />
<vehicle id="type1_204" type="type1" route="sn" depart="725" />
<vehicle id="type1_359" type="type1" route="se" depart="727" />
<vehicle id="type1_205" type="type1" route="sn" depart="730" />
<vehicle id="type1_298" type="type1" route="nw" depart="730" />
<vehicle id="type1_490" type="type1" route="ws" depart="732" />
<vehicle id="type1_532" type="type1" route="ns" depart="734" />
<vehicle id="type1_299" type="type1" route="nw" depart="735" />
<vehicle id="type1_360" type="type1" route="se" depart="735" />
<vehicle id="type1_300" type="type1" route="ns" depart="740" />
<vehicle id="type1_95" type="type1" route="we" depart="749" />
<vehicle id="type1_206" type="type1" route="sn" depart="750" />
<vehicle id="type1_383" type="type1" route="ns" depart="750" />
<vehicle id="type1_491" type="type1" route="sn" depart="750" />
<vehicle id="type1_533" type="type1" route="we" depart="750" />
<vehicle id="type1_492" type="type1" route="we" depart="751" />
<vehicle id="type1_59" type="type1" route="ew" depart="752" />
<vehicle id="type1_207" type="type1" route="sn" depart="753" />
<vehicle id="type1_60" type="type1" route="we" depart="757" />
<vehicle id="type1_208" type="type1" route="sn" depart="757" />
<vehicle id="type1_301" type="type1" route="nw" depart="757" />
<vehicle id="type1_493" type="type1" route="we" depart="764" />
<vehicle id="type1_209" type="type1" route="sn" depart="765" />
<vehicle id="type1_302" type="type1" route="nw" depart="765" />
<vehicle id="type1_534" type="type1" route="ws" depart="766" />