<routes>
            <vType id="type1" accel="0.8" decel="4.5" sigma="0.5" length="5" maxSpeed="70"/>
            <route id="ne" edges="ni eo"/>
            <route id="ns" edges="ni so"/>
            <route id="nw" edges="ni wo"/>
            <route id="en" edges="ei no"/>
            <route id="es" edges="ei so"/>
            <route id="ew" edges="ei wo"/>
            <route id="sn" edges="si no"/>
            <route id="se" edges="si eo"/>
            <route id="sw" edges="si wo"/>
            <route id="wn" edges="wi no"/>
            <route id="we" edges="wi eo"/>
            <route id="ws" edges="wi so"/>
        <vehicle id="se_0" type="type1" route="se" depart="0.2861095326960602" />
<vehicle id="ne_1" type="type1" route="ne" depart="0.7290410003049381" />
<vehicle id="sn_2" type="type1" route="sn" depart="1.1255219560382728" />
<vehicle id="we_3" type="type1" route="we" depart="1.8904847386002075" />
<vehicle id="ne_4" type="type1" route="ne" depart="3.588310421607799" />
<vehicle id="ew_5" type="type1" route="ew" depart="4.427698621596736" />
<vehicle id="ws_6" type="type1" route="ws" depart="5.751473014317472" />
<vehicle id="ne_7" type="type1" route="ne" depart="6.107886629163553" />
<vehicle id="nw_8" type="type1" route="nw" depart="7.702494222346223" />
<vehicle id="se_9" type="type1" route="se" depart="9.62267529136907" />
<vehicle id="we_10" type="type1" route="we" depart="10.516970294036296" />
<vehicle id="nw_11" type="type1" route="nw" depart="10.990654972766349" />
<vehicle id="we_12" type="type1" route="we" depart="11.81634959350818" />
<vehicle id="sn_13" type="type1" route="sn" depart="11.87451336513353" />
<vehicle id="en_14" type="type1" route="en" depart="12.029906901817192" />
<vehicle id="wn_15" type="type1" route="wn" depart="12.130732127312738" />
<vehicle id="wn_16" type="type1" route="wn" depart="12.561646588497533" />
<vehicle id="nw_17" type="type1" route="nw" depart="12.892556559262635" />
<vehicle id="es_18" type="type1" route="es" depart="13.736833821032134" />
<vehicle id="en_19" type="type1" route="en" depart="13.99687045860984" />
<vehicle id="sw_20" type="type1" route="sw" depart="14.215873255668692" />
<vehicle id="sn_21" type="type1" route="sn" depart="14.311776781265298" />
<vehicle id="wn_22" type="type1" route="wn" depart="15.138377014718852" />
<vehicle id="sw_23" type="type1" route="sw" depart="17.032318873234168" />
<vehicle id="en_24" type="type1" route="en" depart="17.299095690645753" />
<vehicle id="en_25" type="type1" route="en" depart="17.90076884700147" />
<vehicle id="sn_26" type="type1" route="sn" depart="20.284454319289097" />
<vehicle id="wn_27" type="type1" route="wn" depart="20.765053291993993" />
<vehicle id="sw_28" type="type1" route="sw" depart="21.04629819198048" />
<vehicle id="ns_29" type="type1" route="ns" depart="21.0983289602611" />
<vehicle id="wn_30" type="type1" route="wn" depart="21.178292969983055" />
<vehicle id="wn_31" type="type1" route="wn" depart="21.520495641395314" />
<vehicle id="ns_32" type="type1" route="ns" depart="22.877615978326297" />
<vehicle id="en_33" type="type1" route="en" depart="23.816291503167122" />
<vehicle id="se_34" type="type1" route="se" depart="24.541430542920086" />
<vehicle id="sn_35" type="type1" route="sn" depart="24.808390519224925" />
<vehicle id="es_36" type="type1" route="es" depart="25.09380659518937" />
<vehicle id="sw_37" type="type1" route="sw" depart="25.34122211852958" />
<vehicle id="ns_38" type="type1" route="ns" depart="25.98268597615566" />
<vehicle id="es_39" type="type1" route="es" depart="26.406507415980748" />
<vehicle id="we_40" type="type1" route="we" depart="26.48697187973717" />
<vehicle id="nw_41" type="type1" route="nw" depart="28.53765379030625" />
<vehicle id="sn_42" type="type1" route="sn" depart="28.538520794777472" />
<vehicle id="ew_43" type="type1" route="ew" depart="29.790819452331" />
<vehicle id="ne_44" type="type1" route="ne" depart="32.97090560023992" />
<vehicle id="ne_45" type="type1" route="ne" depart="33.8810786894007" />
<vehicle id="ew_46" type="type1" route="ew" depart="34.4473352083173" />
<vehicle id="es_47" type="type1" route="es" depart="35.615295660538315" />
<vehicle id="wn_48" type="type1" route="wn" depart="35.76945394788391" />
<vehicle id="sn_49" type="type1" route="sn" depart="36.34812330170632" />
<vehicle id="en_50" type="type1" route="en" depart="36.50133162330582" />
<vehicle id="es_51" type="type1" route="es" depart="37.66370762727911" />
<vehicle id="wn_52" type="type1" route="wn" depart="38.46427964085465" />
<vehicle id="nw_53" type="type1" route="nw" depart="39.21301529316357" />
<vehicle id="sn_54" type="type1" route="sn" depart="39.60842772951822" />
<vehicle id="nw_55" type="type1" route="nw" depart="40.036988949650876" />
<vehicle id="wn_56" type="type1" route="wn" depart="40.66237673122952" />
<vehicle id="se_57" type="type1" route="se" depart="41.513135137153895" />
<vehicle id="nw_58" type="type1" route="nw" depart="41.67726247029216" />
<vehicle id="ns_59" type="type1" route="ns" depart="41.864180643398306" />
<vehicle id="se_60" type="type1" route="se" depart="42.269639698427355" />
<vehicle id="ne_61" type="type1" route="ne" depart="43.684796766694554" />
<vehicle id="ns_62" type="type1" route="ns" depart="45.340359818545544" />
<vehicle id="ns_63" type="type1" route="ns" depart="45.51169043134571" />
<vehicle id="wn_64" type="type1" route="wn" depart="45.88666890956841" />
<vehicle id="sn_65" type="type1" route="sn" depart="46.08726557816143" />
<vehicle id="se_66" type="type1" route="se" depart="46.557307946586555" />
<vehicle id="sn_67" type="type1" route="sn" depart="47.6048530732812" />
<vehicle id="es_68" type="type1" route="es" depart="48.365672343327" />
<vehicle id="ws_69" type="type1" route="ws" depart="48.68840660048792" />
<vehicle id="ew_70" type="type1" route="ew" depart="49.47768639318706" />
<vehicle id="sw_71" type="type1" route="sw" depart="49.53509220726172" />
<vehicle id="en_72" type="type1" route="en" depart="52.16959018304485" />
<vehicle id="ne_73" type="type1" route="ne" depart="52.52217064715985" />
<vehicle id="we_74" type="type1" route="we" depart="52.77460257057717" />
<vehicle id="wn_75" type="type1" route="wn" depart="52.9042091082067" />
<vehicle id="sn_76" type="type1" route="sn" depart="53.08540900021869" />
<vehicle id="ns_77" type="type1" route="ns" depart="54.00619364812844" />
<vehicle id="se_78" type="type1" route="se" depart="55.556115676173526" />
<vehicle id="en_79" type="type1" route="en" depart="56.01128107569734" />
<vehicle id="ns_80" type="type1" route="ns" depart="57.20482112788014" />
<vehicle id="sw_81" type="type1" route="sw" depart="57.44920462689348" />
<vehicle id="ns_82" type="type1" route="ns" depart="57.64161857376682" />
<vehicle id="es_83" type="type1" route="es" depart="57.78151490858758" />
<vehicle id="sn_84" type="type1" route="sn" depart="59.00990917332163" />
<vehicle id="wn_85" type="type1" route="wn" depart="59.0216956538196" />
<vehicle id="en_86" type="type1" route="en" depart="59.94470503512611" />
<vehicle id="nw_87" type="type1" route="nw" depart="60.02023580303898" />
<vehicle id="en_88" type="type1" route="en" depart="60.294892138511685" />
<vehicle id="ns_89" type="type1" route="ns" depart="60.54128630335624" />
<vehicle id="es_90" type="type1" route="es" depart="60.55555965795105" />
<vehicle id="sn_91" type="type1" route="sn" depart="61.136144380073496" />
<vehicle id="ws_92" type="type1" route="ws" depart="61.27254314670332" />
<vehicle id="ws_93" type="type1" route="ws" depart="63.32956585497426" />
<vehicle id="we_94" type="type1" route="we" depart="63.59401110082125" />
<vehicle id="en_95" type="type1" route="en" depart="63.642421512904775" />
<vehicle id="ew_96" type="type1" route="ew" depart="63.88226588215861" />
<vehicle id="we_97" type="type1" route="we" depart="64.79189374320305" />
<vehicle id="se_98" type="type1" route="se" depart="67.44851797073729" />
<vehicle id="se_99" type="type1" route="se" depart="67.86490418571675" />
<vehicle id="we_100" type="type1" route="we" depart="67.97721093354704" />
<vehicle id="se_101" type="type1" route="se" depart="68.04926436341691" />
<vehicle id="ne_102" type="type1" route="ne" depart="69.37444238130668" />
<vehicle id="ew_103" type="type1" route="ew" depart="70.26907440082421" />
<vehicle id="en_104" type="type1" route="en" depart="70.83501709876802" />
<vehicle id="es_105" type="type1" route="es" depart="71.54439220849102" />
<vehicle id="es_106" type="type1" route="es" depart="72.97242270207903" />
<vehicle id="sw_107" type="type1" route="sw" depart="73.48973231055895" />
<vehicle id="se_108" type="type1" route="se" depart="73.73134193078819" />
<vehicle id="ew_109" type="type1" route="ew" depart="73.92184707959561" />
<vehicle id="es_110" type="type1" route="es" depart="74.23078758358871" />
<vehicle id="sn_111" type="type1" route="sn" depart="74.73961809028047" />
<vehicle id="wn_112" type="type1" route="wn" depart="75.37544080745195" />
<vehicle id="ws_113" type="type1" route="ws" depart="75.70176015858009" />
<vehicle id="ew_114" type="type1" route="ew" depart="76.64449098045627" />
<vehicle id="se_115" type="type1" route="se" depart="77.00705889863967" />
<vehicle id="nw_116" type="type1" route="nw" depart="77.80526650959091" />
<vehicle id="se_117" type="type1" route="se" depart="78.52317152729444" />
<vehicle id="ns_118" type="type1" route="ns" depart="78.73932430998221" />
<vehicle id="ws_119" type="type1" route="ws" depart="79.31880471727054" />
<vehicle id="ne_120" type="type1" route="ne" depart="80.09025109956613" />
<vehicle id="we_121" type="type1" route="we" depart="80.15796009750665" />
<vehicle id="ws_122" type="type1" route="ws" depart="80.18575239107754" />
<vehicle id="ew_123" type="type1" route="ew" depart="80.25222357066119" />
<vehicle id="nw_124" type="type1" route="nw" depart="81.02562985488373" />
<vehicle id="es_125" type="type1" route="es" depart="81.28614685126901" />
<vehicle id="ne_126" type="type1" route="ne" depart="81.3916590922889" />
<vehicle id="ws_127" type="type1" route="ws" depart="81.603755334971" />
<vehicle id="se_128" type="type1" route="se" depart="83.1700778571608" />
<vehicle id="wn_129" type="type1" route="wn" depart="83.7203776379523" />
<vehicle id="wn_130" type="type1" route="wn" depart="84.53594879819141" />
<vehicle id="en_131" type="type1" route="en" depart="85.27119817828148" />
<vehicle id="wn_132" type="type1" route="wn" depart="87.35930560990074" />
<vehicle id="wn_133" type="type1" route="wn" depart="87.41320322822197" />
<vehicle id="ew_134" type="type1" route="ew" depart="88.53636917905908" />
<vehicle id="we_135" type="type1" route="we" depart="89.87343571211088" />
<vehicle id="ne_136" type="type1" route="ne" depart="90.51135995404537" />
<vehicle id="ew_137" type="type1" route="ew" depart="91.21730339312894" />
<vehicle id="se_138" type="type1" route="se" depart="92.88837965401011" />
<vehicle id="we_139" type="type1" route="we" depart="93.81401184764854" />
<vehicle id="nw_140" type="type1" route="nw" depart="94.07733614463584" />
<vehicle id="ew_141" type="type1" route="ew" depart="95.3445288964345" />
<vehicle id="ne_142" type="type1" route="ne" depart="96.37304848299426" />
<vehicle id="sw_143" type="type1" route="sw" depart="97.15269440352715" />
<vehicle id="ew_144" type="type1" route="ew" depart="98.75774585797835" />
<vehicle id="sn_145" type="type1" route="sn" depart="98.85074966372977" />
<vehicle id="ew_146" type="type1" route="ew" depart="99.84424665649686" />
<vehicle id="sn_147" type="type1" route="sn" depart="100.11944093992105" />
<vehicle id="wn_148" type="type1" route="wn" depart="101.29437584820336" />
<vehicle id="sn_149" type="type1" route="sn" depart="102.81192398836139" />
<vehicle id="nw_150" type="type1" route="nw" depart="104.23937279888872" />
<vehicle id="se_151" type="type1" route="se" depart="105.03319054198724" />
<vehicle id="ew_152" type="type1" route="ew" depart="105.17748218928004" />
<vehicle id="sw_153" type="type1" route="sw" depart="105.81583057172813" />
<vehicle id="en_154" type="type1" route="en" depart="105.91637076788706" />
<vehicle id="we_155" type="type1" route="we" depart="106.59270331150138" />
<vehicle id="nw_156" type="type1" route="nw" depart="106.69758909037247" />
<vehicle id="en_157" type="type1" route="en" depart="108.06591243240432" />
<vehicle id="ew_158" type="type1" route="ew" depart="108.69291088264514" />
<vehicle id="ne_159" type="type1" route="ne" depart="108.75252123773875" />
<vehicle id="nw_160" type="type1" route="nw" depart="108.76057988275119" />
<vehicle id="en_161" type="type1" route="en" depart="109.47632134752693" />
<vehicle id="nw_162" type="type1" route="nw" depart="111.08762607320638" />
<vehicle id="wn_163" type="type1" route="wn" depart="111.9315630725975" />
<vehicle id="nw_164" type="type1" route="nw" depart="111.96947161846269" />
<vehicle id="ne_165" type="type1" route="ne" depart="112.39918368789154" />
<vehicle id="se_166" type="type1" route="se" depart="113.26277795821078" />
<vehicle id="en_167" type="type1" route="en" depart="113.33089722354372" />
<vehicle id="nw_168" type="type1" route="nw" depart="114.12331334387758" />
<vehicle id="sn_169" type="type1" route="sn" depart="114.46506955998292" />
<vehicle id="ew_170" type="type1" route="ew" depart="114.59023182222282" />
<vehicle id="nw_171" type="type1" route="nw" depart="114.8446853915951" />
<vehicle id="nw_172" type="type1" route="nw" depart="115.13281928928495" />
<vehicle id="se_173" type="type1" route="se" depart="115.68170646573185" />
<vehicle id="we_174" type="type1" route="we" depart="115.8873047287343" />
<vehicle id="se_175" type="type1" route="se" depart="118.51892968252113" />
<vehicle id="se_176" type="type1" route="se" depart="119.12680034671352" />
<vehicle id="ns_177" type="type1" route="ns" depart="120.44316553122214" />
<vehicle id="se_178" type="type1" route="se" depart="120.54438823751369" />
<vehicle id="es_179" type="type1" route="es" depart="121.91980517527703" />
<vehicle id="sw_180" type="type1" route="sw" depart="122.91116647248982" />
<vehicle id="ns_181" type="type1" route="ns" depart="123.56332061358003" />
<vehicle id="sw_182" type="type1" route="sw" depart="124.07635768073366" />
<vehicle id="wn_183" type="type1" route="wn" depart="124.40393108928112" />
<vehicle id="es_184" type="type1" route="es" depart="125.20606760203182" />
<vehicle id="nw_185" type="type1" route="nw" depart="127.98072719728835" />
<vehicle id="se_186" type="type1" route="se" depart="129.6181081714711" />
<vehicle id="ns_187" type="type1" route="ns" depart="130.20978825826464" />
<vehicle id="sn_188" type="type1" route="sn" depart="132.64670807622088" />
<vehicle id="se_189" type="type1" route="se" depart="133.49725696253753" />
<vehicle id="es_190" type="type1" route="es" depart="134.4449777171819" />
<vehicle id="en_191" type="type1" route="en" depart="135.5065127725467" />
<vehicle id="sw_192" type="type1" route="sw" depart="135.67713166066835" />
<vehicle id="ns_193" type="type1" route="ns" depart="137.04775007228247" />
<vehicle id="ne_194" type="type1" route="ne" depart="137.27423122098253" />
<vehicle id="se_195" type="type1" route="se" depart="137.7286571707575" />
<vehicle id="nw_196" type="type1" route="nw" depart="138.03773205890263" />
<vehicle id="ew_197" type="type1" route="ew" depart="138.6406345713742" />
<vehicle id="sn_198" type="type1" route="sn" depart="139.04775140364129" />
<vehicle id="nw_199" type="type1" route="nw" depart="141.43424143801948" />
<vehicle id="nw_200" type="type1" route="nw" depart="141.4769573286996" />
<vehicle id="en_201" type="type1" route="en" depart="141.79054735848433" />
<vehicle id="en_202" type="type1" route="en" depart="141.97984157614502" />
<vehicle id="sw_203" type="type1" route="sw" depart="142.60627710966426" />
<vehicle id="se_204" type="type1" route="se" depart="142.631079673254" />
<vehicle id="ne_205" type="type1" route="ne" depart="143.61906550564862" />
<vehicle id="ns_206" type="type1" route="ns" depart="144.4432248170182" />
<vehicle id="ne_207" type="type1" route="ne" depart="144.5039569560678" />
<vehicle id="nw_208" type="type1" route="nw" depart="144.98731600088482" />
<vehicle id="se_209" type="type1" route="se" depart="145.5100336419605" />
<vehicle id="we_210" type="type1" route="we" depart="146.28556682891778" />
<vehicle id="we_211" type="type1" route="we" depart="146.28572812028847" />
<vehicle id="se_212" type="type1" route="se" depart="146.93456876760482" />
<vehicle id="sw_213" type="type1" route="sw" depart="147.13441666106266" />
<vehicle id="ws_214" type="type1" route="ws" depart="147.44413882746653" />
<vehicle id="sn_215" type="type1" route="sn" depart="147.80637735388507" />
<vehicle id="nw_216" type="type1" route="nw" depart="148.47067619089256" />
<vehicle id="we_217" type="type1" route="we" depart="149.4128376933066" />
<vehicle id="ws_218" type="type1" route="ws" depart="149.66290111350048" />
<vehicle id="we_219" type="type1" route="we" depart="150.8062748295993" />
<vehicle id="es_220" type="type1" route="es" depart="150.8464344151104" />
<vehicle id="ns_221" type="type1" route="ns" depart="151.70323470445504" />
<vehicle id="nw_222" type="type1" route="nw" depart="151.70692095187906" />
<vehicle id="sw_223" type="type1" route="sw" depart="152.68167803129137" />
<vehicle id="ns_224" type="type1" route="ns" depart="153.28028843313754" />
<vehicle id="es_225" type="type1" route="es" depart="153.60192297149143" />
<vehicle id="ew_226" type="type1" route="ew" depart="154.0823199922301" />
<vehicle id="wn_227" type="type1" route="wn" depart="155.13662970972436" />
<vehicle id="sw_228" type="type1" route="sw" depart="155.1733231842978" />
<vehicle id="sw_229" type="type1" route="sw" depart="156.38129140782382" />
<vehicle id="ne_230" type="type1" route="ne" depart="157.22024608677535" />
<vehicle id="wn_231" type="type1" route="wn" depart="157.53391717632852" />
<vehicle id="en_232" type="type1" route="en" depart="159.4624968762021" />
<vehicle id="en_233" type="type1" route="en" depart="160.9329141300608" />
<vehicle id="ws_234" type="type1" route="ws" depart="162.5376913054555" />
<vehicle id="nw_235" type="type1" route="nw" depart="162.574461845654" />
<vehicle id="ew_236" type="type1" route="ew" depart="162.6041323381046" />
<vehicle id="ws_237" type="type1" route="ws" depart="162.88873179606978" />
<vehicle id="es_238" type="type1" route="es" depart="163.32461848458604" />
<vehicle id="sn_239" type="type1" route="sn" depart="165.18729273217505" />
<vehicle id="we_240" type="type1" route="we" depart="165.37754195321776" />
<vehicle id="se_241" type="type1" route="se" depart="167.21510062645586" />
<vehicle id="sn_242" type="type1" route="sn" depart="167.38516317209397" />
<vehicle id="ws_243" type="type1" route="ws" depart="167.7727622879836" />
<vehicle id="nw_244" type="type1" route="nw" depart="168.67566769980854" />
<vehicle id="we_245" type="type1" route="we" depart="169.1130466800848" />
<vehicle id="ne_246" type="type1" route="ne" depart="169.25182149740135" />
<vehicle id="se_247" type="type1" route="se" depart="169.97175783323448" />
<vehicle id="ws_248" type="type1" route="ws" depart="170.63908748339767" />
<vehicle id="en_249" type="type1" route="en" depart="171.75000780909758" />
<vehicle id="ew_250" type="type1" route="ew" depart="172.76767615228263" />
<vehicle id="wn_251" type="type1" route="wn" depart="173.02778427472214" />
<vehicle id="sw_252" type="type1" route="sw" depart="173.14639150967628" />
<vehicle id="we_253" type="type1" route="we" depart="173.8203320847813" />
<vehicle id="ws_254" type="type1" route="ws" depart="174.29057191006035" />
<vehicle id="nw_255" type="type1" route="nw" depart="177.13005536291575" />
<vehicle id="ne_256" type="type1" route="ne" depart="177.89711069772167" />
<vehicle id="sw_257" type="type1" route="sw" depart="179.36460625631386" />
<vehicle id="se_258" type="type1" route="se" depart="179.56106902280357" />
<vehicle id="ns_259" type="type1" route="ns" depart="180.8173669375902" />
<vehicle id="ws_260" type="type1" route="ws" depart="180.8361613902585" />
<vehicle id="ne_261" type="type1" route="ne" depart="181.81662454850374" />
<vehicle id="ew_262" type="type1" route="ew" depart="182.21618006882483" />
<vehicle id="we_263" type="type1" route="we" depart="183.56006554791946" />
<vehicle id="wn_264" type="type1" route="wn" depart="184.4190834001484" />
<vehicle id="ws_265" type="type1" route="ws" depart="185.12281997662708" />
<vehicle id="ns_266" type="type1" route="ns" depart="185.7246539389329" />
<vehicle id="ew_267" type="type1" route="ew" depart="186.42714727818202" />
<vehicle id="se_268" type="type1" route="se" depart="187.49146592287713" />
<vehicle id="ws_269" type="type1" route="ws" depart="187.92087849603072" />
<vehicle id="we_270" type="type1" route="we" depart="187.97918322264778" />
<vehicle id="ws_271" type="type1" route="ws" depart="189.19887456279713" />
<vehicle id="we_272" type="type1" route="we" depart="192.2285397306515" />
<vehicle id="en_273" type="type1" route="en" depart="192.55390953240953" />
<vehicle id="se_274" type="type1" route="se" depart="193.43453520691742" />
<vehicle id="sw_275" type="type1" route="sw" depart="194.27932637720764" />
<vehicle id="we_276" type="type1" route="we" depart="195.47449281527463" />
<vehicle id="we_277" type="type1" route="we" depart="196.75447278849472" />
<vehicle id="en_278" type="type1" route="en" depart="197.19130619747375" />
<vehicle id="sw_279" type="type1" route="sw" depart="197.57825375672306" />
<vehicle id="nw_280" type="type1" route="nw" depart="197.6497306727452" />
<vehicle id="wn_281" type="type1" route="wn" depart="197.76827124969228" />
<vehicle id="ns_282" type="type1" route="ns" depart="198.52858975172967" />
<vehicle id="sn_283" type="type1" route="sn" depart="200.25199734980012" />
<vehicle id="en_284" type="type1" route="en" depart="200.9352619819054" />
<vehicle id="sn_285" type="type1" route="sn" depart="201.0246366585611" />
<vehicle id="nw_286" type="type1" route="nw" depart="201.5644012037948" />
<vehicle id="we_287" type="type1" route="we" depart="201.61614329668186" />
<vehicle id="ew_288" type="type1" route="ew" depart="202.03772392979945" />
<vehicle id="es_289" type="type1" route="es" depart="202.439545787153" />
<vehicle id="sn_290" type="type1" route="sn" depart="203.3329888812142" />
<vehicle id="ew_291" type="type1" route="ew" depart="204.31279551390026" />
<vehicle id="we_292" type="type1" route="we" depart="206.51444034035734" />
<vehicle id="ws_293" type="type1" route="ws" depart="208.16810401037557" />
<vehicle id="ne_294" type="type1" route="ne" depart="210.05099062961662" />
<vehicle id="es_295" type="type1" route="es" depart="210.3105764652634" />
<vehicle id="ns_296" type="type1" route="ns" depart="210.7711147956468" />
<vehicle id="se_297" type="type1" route="se" depart="211.5670801436864" />
<vehicle id="ns_298" type="type1" route="ns" depart="212.03418699103855" />
<vehicle id="nw_299" type="type1" route="nw" depart="212.22532225571067" />
<vehicle id="ns_300" type="type1" route="ns" depart="212.52812688138238" />
<vehicle id="sw_301" type="type1" route="sw" depart="213.64500809862983" />
<vehicle id="ne_302" type="type1" route="ne" depart="213.74085995458998" />
<vehicle id="ws_303" type="type1" route="ws" depart="213.8420786922212" />
<vehicle id="wn_304" type="type1" route="wn" depart="213.85805194708678" />
<vehicle id="ns_305" type="type1" route="ns" depart="214.0106523893092" />
<vehicle id="ns_306" type="type1" route="ns" depart="215.58537256116762" />
<vehicle id="sn_307" type="type1" route="sn" depart="215.7458278961173" />
<vehicle id="se_308" type="type1" route="se" depart="215.8362195883351" />
<vehicle id="sn_309" type="type1" route="sn" depart="215.9413396312461" />
<vehicle id="we_310" type="type1" route="we" depart="216.45053081489692" />
<vehicle id="sn_311" type="type1" route="sn" depart="216.8250742872016" />
<vehicle id="es_312" type="type1" route="es" depart="216.9579387764694" />
<vehicle id="nw_313" type="type1" route="nw" depart="217.7332223149602" />
<vehicle id="en_314" type="type1" route="en" depart="218.39548679016164" />
<vehicle id="wn_315" type="type1" route="wn" depart="218.78625740643517" />
<vehicle id="es_316" type="type1" route="es" depart="219.93622545113632" />
<vehicle id="sw_317" type="type1" route="sw" depart="220.17748325781977" />
<vehicle id="wn_318" type="type1" route="wn" depart="221.61868692023498" />
<vehicle id="sw_319" type="type1" route="sw" depart="222.31361302915448" />
<vehicle id="we_320" type="type1" route="we" depart="222.36694837430542" />
<vehicle id="sn_321" type="type1" route="sn" depart="222.75426247071672" />
<vehicle id="en_322" type="type1" route="en" depart="224.5333410082682" />
<vehicle id="wn_323" type="type1" route="wn" depart="225.5830988097054" />
<vehicle id="ne_324" type="type1" route="ne" depart="225.7611358003024" />
<vehicle id="ne_325" type="type1" route="ne" depart="225.83455425187302" />
<vehicle id="se_326" type="type1" route="se" depart="225.84450774795408" />
<vehicle id="es_327" type="type1" route="es" depart="227.64208494249922" />
<vehicle id="en_328" type="type1" route="en" depart="228.1010467918024" />
<vehicle id="sn_329" type="type1" route="sn" depart="229.1681869964512" />
<vehicle id="sw_330" type="type1" route="sw" depart="229.5195181846836" />
<vehicle id="ne_331" type="type1" route="ne" depart="230.11461405205185" />
<vehicle id="sn_332" type="type1" route="sn" depart="230.60119024812406" />
<vehicle id="ew_333" type="type1" route="ew" depart="231.259466213615" />
<vehicle id="we_334" type="type1" route="we" depart="231.2828300728681" />
<vehicle id="es_335" type="type1" route="es" depart="232.03909740404094" />
<vehicle id="es_336" type="type1" route="es" depart="232.24965549767722" />
<vehicle id="we_337" type="type1" route="we" depart="232.51577169433335" />
<vehicle id="en_338" type="type1" route="en" depart="235.811117583233" />
<vehicle id="ws_339" type="type1" route="ws" depart="236.2462247349713" />
<vehicle id="sn_340" type="type1" route="sn" depart="236.41298599227946" />
<vehicle id="es_341" type="type1" route="es" depart="236.9028554919845" />
<vehicle id="sw_342" type="type1" route="sw" depart="238.59163185441614" />
<vehicle id="ws_343" type="type1" route="ws" depart="239.97313863731088" />
<vehicle id="es_344" type="type1" route="es" depart="240.49750184630003" />
<vehicle id="ns_345" type="type1" route="ns" depart="240.9022243113182" />
<vehicle id="ws_346" type="type1" route="ws" depart="241.18546229868602" />
<vehicle id="sn_347" type="type1" route="sn" depart="241.87595478030502" />
<vehicle id="sn_348" type="type1" route="sn" depart="242.17063424196556" />
<vehicle id="nw_349" type="type1" route="nw" depart="243.02247868497375" />
<vehicle id="sw_350" type="type1" route="sw" depart="243.70541901346868" />
<vehicle id="es_351" type="type1" route="es" depart="245.51195324430327" />
<vehicle id="ws_352" type="type1" route="ws" depart="246.08700725786704" />
<vehicle id="ws_353" type="type1" route="ws" depart="247.08666390313292" />
<vehicle id="ws_354" type="type1" route="ws" depart="247.54283048201594" />
<vehicle id="sn_355" type="type1" route="sn" depart="248.93058453826995" />
<vehicle id="ns_356" type="type1" route="ns" depart="249.8630422004457" />
<vehicle id="en_357" type="type1" route="en" depart="249.91225789583686" />
<vehicle id="wn_358" type="type1" route="wn" depart="250.38979854842145" />
<vehicle id="sn_359" type="type1" route="sn" depart="251.45139147611027" />
<vehicle id="ne_360" type="type1" route="ne" depart="251.69885581861206" />
<vehicle id="es_361" type="type1" route="es" depart="252.0218976612671" />
<vehicle id="ws_362" type="type1" route="ws" depart="252.0628334010461" />
<vehicle id="wn_363" type="type1" route="wn" depart="253.19287617177903" />
<vehicle id="ws_364" type="type1" route="ws" depart="253.33960224256342" />
<vehicle id="we_365" type="type1" route="we" depart="253.53703040777572" />
<vehicle id="sn_366" type="type1" route="sn" depart="253.78548385216862" />
<vehicle id="ws_367" type="type1" route="ws" depart="253.8256315371786" />
<vehicle id="we_368" type="type1" route="we" depart="255.0205917291935" />
<vehicle id="en_369" type="type1" route="en" depart="255.0350049175276" />
<vehicle id="en_370" type="type1" route="en" depart="255.3468682729672" />
<vehicle id="ws_371" type="type1" route="ws" depart="256.66801936336157" />
<vehicle id="ew_372" type="type1" route="ew" depart="256.89812105627675" />
<vehicle id="ws_373" type="type1" route="ws" depart="257.1169644402204" />
<vehicle id="en_374" type="type1" route="en" depart="257.4079693575747" />
<vehicle id="we_375" type="type1" route="we" depart="257.7645124905733" />
<vehicle id="ne_376" type="type1" route="ne" depart="258.23321950936" />
<vehicle id="sw_377" type="type1" route="sw" depart="258.534986031673" />
<vehicle id="nw_378" type="type1" route="nw" depart="258.54650294486197" />
<vehicle id="ws_379" type="type1" route="ws" depart="259.5877927201542" />
<vehicle id="we_380" type="type1" route="we" depart="259.92151220881846" />
<vehicle id="wn_381" type="type1" route="wn" depart="260.53553683267734" />
<vehicle id="en_382" type="type1" route="en" depart="260.91391508606245" />
<vehicle id="ws_383" type="type1" route="ws" depart="262.1898327712229" />
<vehicle id="wn_384" type="type1" route="wn" depart="263.1686380693589" />
<vehicle id="ew_385" type="type1" route="ew" depart="263.80162889799743" />
<vehicle id="sn_386" type="type1" route="sn" depart="264.4188240191583" />
<vehicle id="wn_387" type="type1" route="wn" depart="265.6968677534091" />
<vehicle id="we_388" type="type1" route="we" depart="265.9442707285045" />
<vehicle id="sn_389" type="type1" route="sn" depart="266.67100497153234" />