<routes>
            <vType id="type1" accel="0.8" decel="4.5" sigma="0.5" length="5" maxSpeed="70"/>
            <vType id="rescue" vClass="emergency" speedFactor="1.5" guiShape="emergency">
                <param key="has.bluelight.device" value="true"/>
            </vType>
            <route id="ne" edges="ni eo"/>
            <route id="ns" edges="ni so"/>
            <route id="nw" edges="ni wo"/>
            <route id="en" edges="ei no"/>
            <route id="es" edges="ei so"/>
            <route id="ew" edges="ei wo"/>
            <route id="sn" edges="si no"/>
            <route id="se" edges="si eo"/>
            <route id="sw" edges="si wo"/>
            <route id="wn" edges="wi no"/>
            <route id="we" edges="wi eo"/>
            <route id="ws" edges="wi so"/>
        <vehicle id="type1_1" type="type1" route="wn" depart="0.5578682651141817" />
<vehicle id="type1_2" type="type1" route="sn" depart="1.0204532355554794" />
<vehicle id="type1_3" type="type1" route="en" depart="1.1647352222853251" />
<vehicle id="type1_4" type="type1" route="sn" depart="2.345339011414621" />
<vehicle id="type1_5" type="type1" route="we" depart="7.593467888426037" />
<vehicle id="type1_6" type="type1" route="ne" depart="7.755795143583603" />
<vehicle id="type1_7" type="type1" route="ew" depart="8.44970800488065" />
<vehicle id="emv_1" type="rescue" route="ws" depart="9.52516438773299" />
<vehicle id="type1_8" type="type1" route="ne" depart="11.96372092517167" />
<vehicle id="type1_9" type="type1" route="nw" depart="13.585853743088222" />
<vehicle id="type1_10" type="type1" route="se" depart="16.910566219559307" />
<vehicle id="type1_11" type="type1" route="we" depart="17.200775777880462" />
<vehicle id="type1_12" type="type1" route="nw" depart="18.13294498091144" />
<vehicle id="type1_13" type="type1" route="we" depart="20.39747192426154" />
<vehicle id="type1_14" type="type1" route="sn" depart="21.019995117578414" />
<vehicle id="emv_2" type="rescue" route="en" depart="24.352942611784925" />
<vehicle id="type1_15" type="type1" route="wn" depart="28.162575982225356" />
<vehicle id="type1_16" type="type1" route="wn" depart="29.948065039703366" />
<vehicle id="type1_17" type="type1" route="nw" depart="30.203953437460076" />
<vehicle id="type1_18" type="type1" route="es" depart="36.745171049823355" />
<vehicle id="type1_19" type="type1" route="en" depart="38.90488111941732" />
<vehicle id="type1_20" type="type1" route="sw" depart="41.63391580219125" />
<vehicle id="type1_21" type="type1" route="sn" depart="42.25062377552514" />
<vehicle id="type1_22" type="type1" route="wn" depart="42.552433533790705" />
<vehicle id="type1_23" type="type1" route="sw" depart="43.64168839366525" />
<vehicle id="emv_3" type="rescue" route="en" depart="44.726673561677316" />
<vehicle id="type1_24" type="type1" route="en" depart="46.61668540023629" />
<vehicle id="type1_25" type="type1" route="sn" depart="50.86857705773992" />
<vehicle id="type1_26" type="type1" route="wn" depart="52.927043779075575" />
<vehicle id="type1_27" type="type1" route="sw" depart="55.23578808854763" />
<vehicle id="type1_28" type="type1" route="ns" depart="56.10187918141808" />
<vehicle id="type1_29" type="type1" route="wn" depart="56.89777055339403" />
<vehicle id="type1_30" type="type1" route="wn" depart="57.00764400152281" />
<vehicle id="type1_31" type="type1" route="ns" depart="60.21546266491362" />
<vehicle id="type1_32" type="type1" route="en" depart="61.3852414302317" />
<vehicle id="emv_4" type="rescue" route="se" depart="62.81674612082243" />
<vehicle id="type1_33" type="type1" route="sn" depart="63.32895132152024" />
<vehicle id="type1_34" type="type1" route="es" depart="63.929280276827384" />
<vehicle id="type1_35" type="type1" route="sw" depart="64.2031213940622" />
<vehicle id="type1_36" type="type1" route="ns" depart="64.41247102872381" />
<vehicle id="type1_37" type="type1" route="es" depart="64.75194493423429" />
<vehicle id="type1_38" type="type1" route="we" depart="65.48682641102158" />
<vehicle id="type1_39" type="type1" route="nw" depart="68.16389377908834" />
<vehicle id="type1_40" type="type1" route="sn" depart="68.62286270744522" />
<vehicle id="type1_41" type="type1" route="ew" depart="71.1604985095012" />
<vehicle id="type1_42" type="type1" route="ne" depart="71.52740577850656" />
<vehicle id="type1_43" type="type1" route="ne" depart="72.11834960265489" />
<vehicle id="type1_44" type="type1" route="ew" depart="72.87335802239359" />
<vehicle id="type1_45" type="type1" route="es" depart="72.9943367126893" />
<vehicle id="type1_46" type="type1" route="wn" depart="73.14145497931476" />
<vehicle id="type1_47" type="type1" route="sn" depart="74.02411988279356" />
<vehicle id="type1_48" type="type1" route="en" depart="78.58985860304865" />
<vehicle id="type1_49" type="type1" route="es" depart="80.75642953740763" />
<vehicle id="type1_50" type="type1" route="wn" depart="84.32459571235286" />
<vehicle id="type1_51" type="type1" route="nw" depart="84.73966053005665" />
<vehicle id="type1_52" type="type1" route="sn" depart="85.54765915035064" />
<vehicle id="type1_53" type="type1" route="nw" depart="86.71153295846942" />
<vehicle id="type1_54" type="type1" route="wn" depart="87.69539899666204" />
<vehicle id="type1_55" type="type1" route="se" depart="88.54393520929096" />
<vehicle id="type1_56" type="type1" route="nw" depart="88.727127955074" />
<vehicle id="emv_5" type="rescue" route="ns" depart="90.16315495611352" />
<vehicle id="type1_57" type="type1" route="se" depart="91.78527606298553" />
<vehicle id="type1_58" type="type1" route="ne" depart="92.72016817563038" />
<vehicle id="type1_59" type="type1" route="ns" depart="93.46314664413777" />
<vehicle id="type1_60" type="type1" route="ns" depart="96.6883297217146" />
<vehicle id="type1_61" type="type1" route="wn" depart="99.62029800113444" />
<vehicle id="type1_62" type="type1" route="sn" depart="100.90507718300725" />
<vehicle id="type1_63" type="type1" route="se" depart="101.14369176336916" />
<vehicle id="type1_64" type="type1" route="sn" depart="102.53379541350289" />
<vehicle id="type1_65" type="type1" route="es" depart="103.53297942280284" />
<vehicle id="type1_66" type="type1" route="ws" depart="103.54214532816749" />
<vehicle id="type1_67" type="type1" route="ew" depart="103.64556644754283" />
<vehicle id="type1_68" type="type1" route="sw" depart="103.81964829683866" />
<vehicle id="type1_69" type="type1" route="en" depart="104.55161029783905" />
<vehicle id="type1_70" type="type1" route="ne" depart="106.89506216774129" />
<vehicle id="type1_71" type="type1" route="we" depart="108.6949978081869" />
<vehicle id="type1_72" type="type1" route="wn" depart="109.38789050138628" />
<vehicle id="type1_73" type="type1" route="sn" depart="111.25668838242622" />
<vehicle id="emv_6" type="rescue" route="ns" depart="112.8076698850923" />
<vehicle id="type1_74" type="type1" route="se" depart="114.56920797528768" />
<vehicle id="type1_75" type="type1" route="en" depart="115.0379756281382" />
<vehicle id="type1_76" type="type1" route="ns" depart="118.83074810724585" />
<vehicle id="type1_77" type="type1" route="sw" depart="119.94888090541932" />
<vehicle id="emv_7" type="rescue" route="ns" depart="120.02896726341682" />
<vehicle id="type1_78" type="type1" route="es" depart="121.75708210158493" />
<vehicle id="type1_79" type="type1" route="sn" depart="121.99903146969422" />
<vehicle id="type1_80" type="type1" route="wn" depart="122.28307002781456" />
<vehicle id="emv_8" type="rescue" route="en" depart="123.98342494170406" />
<vehicle id="type1_81" type="type1" route="nw" depart="124.6951797902562" />
<vehicle id="type1_82" type="type1" route="en" depart="126.57658931336547" />
<vehicle id="type1_83" type="type1" route="ns" depart="127.38320857362469" />
<vehicle id="type1_84" type="type1" route="es" depart="129.43862243378504" />
<vehicle id="type1_85" type="type1" route="sn" depart="129.62953002841323" />
<vehicle id="type1_86" type="type1" route="ws" depart="131.130218439386" />
<vehicle id="type1_87" type="type1" route="ws" depart="134.4017087167064" />
<vehicle id="type1_88" type="type1" route="we" depart="135.77092918279004" />
<vehicle id="type1_89" type="type1" route="en" depart="138.29653210224342" />
<vehicle id="type1_90" type="type1" route="ew" depart="138.88718138916812" />
<vehicle id="type1_91" type="type1" route="we" depart="142.74142116159464" />
<vehicle id="type1_92" type="type1" route="se" depart="144.56900706730724" />
<vehicle id="type1_93" type="type1" route="se" depart="145.055971829597" />
<vehicle id="type1_94" type="type1" route="we" depart="148.03736006666617" />
<vehicle id="type1_95" type="type1" route="se" depart="149.6512954363656" />
<vehicle id="type1_96" type="type1" route="ne" depart="149.69734912108387" />
<vehicle id="type1_97" type="type1" route="ew" depart="150.62879525418998" />
<vehicle id="type1_98" type="type1" route="en" depart="152.83289969392754" />
<vehicle id="type1_99" type="type1" route="es" depart="153.33762644131266" />
<vehicle id="type1_100" type="type1" route="es" depart="154.04518916602862" />
<vehicle id="type1_101" type="type1" route="sw" depart="155.88992192318415" />
<vehicle id="type1_102" type="type1" route="se" depart="157.94816262471753" />
<vehicle id="type1_103" type="type1" route="ew" depart="159.12795210533426" />
<vehicle id="type1_104" type="type1" route="es" depart="160.588032472819" />
<vehicle id="type1_105" type="type1" route="sn" depart="162.05129511923005" />
<vehicle id="type1_106" type="type1" route="wn" depart="163.37095240829208" />
<vehicle id="type1_107" type="type1" route="ws" depart="164.6150919186844" />
<vehicle id="type1_108" type="type1" route="ew" depart="164.9354197656303" />
<vehicle id="type1_109" type="type1" route="se" depart="166.06417517430148" />
<vehicle id="emv_9" type="rescue" route="nw" depart="167.27052884617558" />
<vehicle id="type1_110" type="type1" route="se" depart="167.7164427590567" />
<vehicle id="type1_111" type="type1" route="ns" depart="169.06565939120682" />
<vehicle id="type1_112" type="type1" route="ws" depart="169.44348734736866" />
<vehicle id="type1_113" type="type1" route="ne" depart="170.70556020897413" />
<vehicle id="type1_114" type="type1" route="we" depart="171.42023706383884" />
<vehicle id="type1_115" type="type1" route="ws" depart="173.34851533016038" />
<vehicle id="type1_116" type="type1" route="ew" depart="176.5644287180938" />
<vehicle id="type1_117" type="type1" route="nw" depart="178.48975280144012" />
<vehicle id="type1_118" type="type1" route="es" depart="179.8309666362198" />
<vehicle id="type1_119" type="type1" route="ne" depart="179.95966098992716" />
<vehicle id="type1_120" type="type1" route="ws" depart="180.75673082647614" />
<vehicle id="type1_121" type="type1" route="se" depart="181.3300103151073" />
<vehicle id="emv_10" type="rescue" route="wn" depart="186.8133455759646" />
<vehicle id="type1_122" type="type1" route="wn" depart="187.7234029116771" />
<vehicle id="type1_123" type="type1" route="en" depart="188.25529359658447" />
<vehicle id="type1_124" type="type1" route="wn" depart="188.26513205073448" />
<vehicle id="type1_125" type="type1" route="wn" depart="190.29085986313243" />
<vehicle id="type1_126" type="type1" route="ew" depart="192.8966056541772" />
<vehicle id="type1_127" type="type1" route="we" depart="193.01052401640888" />
<vehicle id="type1_128" type="type1" route="ne" depart="194.08678962015534" />
<vehicle id="type1_129" type="type1" route="ew" depart="194.34056221300858" />
<vehicle id="type1_130" type="type1" route="se" depart="196.27225200549228" />
<vehicle id="type1_131" type="type1" route="we" depart="196.72615116713416" />
<vehicle id="type1_132" type="type1" route="nw" depart="197.3523094690691" />
<vehicle id="emv_11" type="rescue" route="ew" depart="199.15550283653752" />
<vehicle id="type1_133" type="type1" route="ne" depart="201.25462560105123" />
<vehicle id="type1_134" type="type1" route="sw" depart="201.47617903286766" />
<vehicle id="type1_135" type="type1" route="ew" depart="201.72598424931874" />
<vehicle id="type1_136" type="type1" route="sn" depart="202.92556407128862" />
<vehicle id="type1_137" type="type1" route="ew" depart="203.1636518721782" />
<vehicle id="type1_138" type="type1" route="sn" depart="204.40176802456207" />
<vehicle id="type1_139" type="type1" route="wn" depart="204.63198305788612" />
<vehicle id="emv_12" type="rescue" route="sn" depart="206.10136145875595" />
<vehicle id="type1_140" type="type1" route="nw" depart="208.6325857559477" />
<vehicle id="type1_141" type="type1" route="se" depart="209.78831756963837" />
<vehicle id="emv_13" type="rescue" route="ew" depart="210.0745631603551" />
<vehicle id="type1_142" type="type1" route="sw" depart="213.99306739648165" />
<vehicle id="type1_143" type="type1" route="en" depart="214.8689564842534" />
<vehicle id="type1_144" type="type1" route="we" depart="215.91785100586512" />
<vehicle id="type1_145" type="type1" route="nw" depart="216.47068954618442" />
<vehicle id="type1_146" type="type1" route="en" depart="218.681065252522" />
<vehicle id="type1_147" type="type1" route="ew" depart="218.9835744419692" />
<vehicle id="type1_148" type="type1" route="ne" depart="219.16973588820392" />
<vehicle id="type1_149" type="type1" route="nw" depart="219.5579472613802" />
<vehicle id="type1_150" type="type1" route="en" depart="222.9829384507025" />
<vehicle id="type1_151" type="type1" route="nw" depart="223.71408582800504" />
<vehicle id="type1_152" type="type1" route="wn" depart="225.32587908582536" />
<vehicle id="type1_153" type="type1" route="nw" depart="225.8706314088261" />
<vehicle id="type1_154" type="type1" route="ne" depart="226.29235859561558" />
<vehicle id="type1_155" type="type1" route="se" depart="232.1229625164636" />
<vehicle id="type1_156" type="type1" route="en" depart="233.89529651871683" />
<vehicle id="type1_157" type="type1" route="nw" depart="235.95670325860843" />
<vehicle id="type1_158" type="type1" route="sn" depart="236.8952452234605" />
<vehicle id="type1_159" type="type1" route="ew" depart="237.39544779857343" />
<vehicle id="type1_160" type="type1" route="nw" depart="237.6107597162535" />
<vehicle id="type1_161" type="type1" route="nw" depart="237.91983226468633" />
<vehicle id="type1_162" type="type1" route="se" depart="238.36209349571286" />
<vehicle id="type1_163" type="type1" route="we" depart="239.87237114041156" />
<vehicle id="emv_14" type="rescue" route="se" depart="242.0486609580158" />
<vehicle id="emv_15" type="rescue" route="se" depart="243.51320637439903" />
<vehicle id="type1_164" type="type1" route="ns" depart="248.4027985812965" />
<vehicle id="type1_165" type="type1" route="se" depart="248.51441342600307" />
<vehicle id="type1_166" type="type1" route="es" depart="250.50337048803937" />
<vehicle id="type1_167" type="type1" route="sw" depart="250.6508553716622" />
<vehicle id="type1_168" type="type1" route="ns" depart="250.97734471874196" />
<vehicle id="type1_169" type="type1" route="sw" depart="252.49296170751987" />
<vehicle id="type1_170" type="type1" route="wn" depart="253.9161794037369" />
<vehicle id="type1_171" type="type1" route="es" depart="254.89678838270802" />
<vehicle id="emv_16" type="rescue" route="nw" depart="255.8160525490001" />
<vehicle id="type1_172" type="type1" route="se" depart="255.92332163385421" />
<vehicle id="type1_173" type="type1" route="ns" depart="257.27442801142337" />
<vehicle id="type1_174" type="type1" route="sn" depart="257.74225846288886" />
<vehicle id="type1_175" type="type1" route="se" depart="258.4001842533058" />
<vehicle id="type1_176" type="type1" route="es" depart="259.59358736285725" />
<vehicle id="type1_177" type="type1" route="en" depart="259.6897809040004" />
<vehicle id="type1_178" type="type1" route="sw" depart="261.4963658671677" />
<vehicle id="type1_179" type="type1" route="ns" depart="261.9077484818006" />
<vehicle id="type1_180" type="type1" route="ne" depart="262.97069051894124" />
<vehicle id="type1_181" type="type1" route="se" depart="263.99616615562906" />
<vehicle id="type1_182" type="type1" route="nw" depart="264.3415966796268" />
<vehicle id="type1_183" type="type1" route="ew" depart="265.6634668372414" />
<vehicle id="emv_17" type="rescue" route="sn" depart="267.7208811667808" />
<vehicle id="type1_184" type="type1" route="nw" depart="268.9613052532509" />
<vehicle id="type1_185" type="type1" route="nw" depart="269.59832519833714" />
<vehicle id="type1_186" type="type1" route="en" depart="273.48523361235743" />
<vehicle id="type1_187" type="type1" route="en" depart="275.2670817662312" />
<vehicle id="type1_188" type="type1" route="sw" depart="277.5884806354628" />
<vehicle id="type1_189" type="type1" route="se" depart="278.0902742273682" />
<vehicle id="type1_190" type="type1" route="ne" depart="281.8787504933461" />
<vehicle id="type1_191" type="type1" route="ns" depart="283.7158211881454" />
<vehicle id="type1_192" type="type1" route="ne" depart="283.76075441163914" />
<vehicle id="type1_193" type="type1" route="nw" depart="284.84606665143707" />
<vehicle id="type1_194" type="type1" route="se" depart="284.88025163972117" />
<vehicle id="type1_195" type="type1" route="we" depart="284.9840226700211" />
<vehicle id="type1_196" type="type1" route="we" depart="287.20313702551783" />
<vehicle id="type1_197" type="type1" route="se" depart="289.46309887163767" />
<vehicle id="type1_198" type="type1" route="sw" depart="290.6512364551485" />
<vehicle id="type1_199" type="type1" route="ws" depart="293.61359201784603" />
<vehicle id="type1_200" type="type1" route="sn" depart="295.09402625642986" />
<vehicle id="type1_201" type="type1" route="nw" depart="296.26068987256684" />
<vehicle id="type1_202" type="type1" route="we" depart="297.1557424438072" />
<vehicle id="type1_203" type="type1" route="ws" depart="297.4496535020377" />
<vehicle id="type1_204" type="type1" route="we" depart="298.8111653665239" />
<vehicle id="type1_205" type="type1" route="es" depart="299.28716877664476" />
<vehicle id="type1_206" type="type1" route="ns" depart="301.49182437880046" />
<vehicle id="type1_207" type="type1" route="nw" depart="302.40304580401886" />
<vehicle id="type1_208" type="type1" route="sw" depart="305.4902101467848" />
<vehicle id="type1_209" type="type1" route="ns" depart="306.1445039687881" />
<vehicle id="type1_210" type="type1" route="es" depart="306.51054958429654" />
<vehicle id="type1_211" type="type1" route="ew" depart="307.6193363398316" />
<vehicle id="type1_212" type="type1" route="wn" depart="308.91929500084376" />
<vehicle id="type1_213" type="type1" route="sw" depart="309.1069566629089" />
<vehicle id="type1_214" type="type1" route="sw" depart="312.1221692234113" />
<vehicle id="type1_215" type="type1" route="ne" depart="312.61903150502667" />
<vehicle id="type1_216" type="type1" route="wn" depart="313.930188628358" />
<vehicle id="type1_217" type="type1" route="en" depart="315.57161497432713" />
<vehicle id="type1_218" type="type1" route="en" depart="318.3548769466888" />
<vehicle id="type1_219" type="type1" route="ws" depart="318.6295356241216" />
<vehicle id="type1_220" type="type1" route="nw" depart="318.82953881072393" />
<vehicle id="type1_221" type="type1" route="ew" depart="321.82371994777867" />
<vehicle id="type1_222" type="type1" route="ws" depart="321.88355384016285" />
<vehicle id="type1_223" type="type1" route="es" depart="323.6350762205429" />
<vehicle id="type1_224" type="type1" route="sn" depart="328.3987618699212" />
<vehicle id="type1_225" type="type1" route="we" depart="330.68636882619404" />
<vehicle id="type1_226" type="type1" route="se" depart="333.7528113054056" />
<vehicle id="type1_227" type="type1" route="sn" depart="334.22701046091595" />
<vehicle id="type1_228" type="type1" route="ws" depart="335.28299180435835" />
<vehicle id="type1_229" type="type1" route="nw" depart="340.0830914770742" />
<vehicle id="type1_230" type="type1" route="we" depart="342.427641610021" />
<vehicle id="type1_231" type="type1" route="ne" depart="343.7259038872959" />
<vehicle id="type1_232" type="type1" route="se" depart="344.17966899523105" />
<vehicle id="type1_233" type="type1" route="ws" depart="348.1450799998655" />
<vehicle id="type1_234" type="type1" route="en" depart="348.55519617032843" />
<vehicle id="type1_235" type="type1" route="ew" depart="349.30206492519994" />
<vehicle id="type1_236" type="type1" route="wn" depart="349.5851805993783" />
<vehicle id="type1_237" type="type1" route="sw" depart="349.8243477288251" />
<vehicle id="emv_18" type="rescue" route="we" depart="353.1685030735865" />
<vehicle id="type1_238" type="type1" route="ws" depart="355.9460283928875" />
<vehicle id="type1_239" type="type1" route="nw" depart="358.83652486290896" />
<vehicle id="type1_240" type="type1" route="ne" depart="359.59481428707903" />
<vehicle id="type1_241" type="type1" route="sw" depart="359.6438234586215" />
<vehicle id="type1_242" type="type1" route="se" depart="360.3266734247422" />
<vehicle id="type1_243" type="type1" route="ns" depart="360.8186184798542" />
<vehicle id="type1_244" type="type1" route="ws" depart="361.1742706246096" />
<vehicle id="emv_19" type="rescue" route="ne" depart="361.32178170261056" />
<vehicle id="type1_245" type="type1" route="ew" depart="363.13891038360975" />
<vehicle id="type1_246" type="type1" route="we" depart="369.0400991409035" />
<vehicle id="type1_247" type="type1" route="wn" depart="370.27506622068165" />
<vehicle id="type1_248" type="type1" route="ws" depart="371.2929210180014" />
<vehicle id="type1_249" type="type1" route="ns" depart="372.5404391745249" />
<vehicle id="type1_250" type="type1" route="ew" depart="372.56046794904216" />
<vehicle id="type1_251" type="type1" route="se" depart="373.92124280964725" />
<vehicle id="type1_252" type="type1" route="ws" depart="375.631663066709" />
<vehicle id="type1_253" type="type1" route="we" depart="375.8355390109282" />
<vehicle id="type1_254" type="type1" route="ws" depart="376.17876949980626" />
<vehicle id="emv_20" type="rescue" route="we" depart="377.57770637668307" />
<vehicle id="type1_255" type="type1" route="en" depart="377.9071615798518" />
<vehicle id="type1_256" type="type1" route="se" depart="378.63666505898817" />
<vehicle id="type1_257" type="type1" route="sw" depart="379.1185370758987" />
<vehicle id="type1_258" type="type1" route="we" depart="380.9778000054825" />
<vehicle id="type1_259" type="type1" route="we" depart="385.19661677182285" />
<vehicle id="emv_21" type="rescue" route="en" depart="388.692190251912" />
<vehicle id="type1_260" type="type1" route="sw" depart="389.0667767730441" />
<vehicle id="type1_261" type="type1" route="nw" depart="390.1969674518675" />
<vehicle id="type1_262" type="type1" route="wn" depart="397.34016184125204" />
<vehicle id="type1_263" type="type1" route="ns" depart="397.6755685671453" />
<vehicle id="type1_264" type="type1" route="sn" depart="397.8599172312197" />
<vehicle id="type1_265" type="type1" route="en" depart="398.5201052942863" />
<vehicle id="type1_266" type="type1" route="sn" depart="398.9539920849258" />
<vehicle id="type1_267" type="type1" route="nw" depart="399.4140079035198" />
<vehicle id="type1_268" type="type1" route="we" depart="401.0112038069034" />
<vehicle id="type1_269" type="type1" route="ew" depart="401.76981766821626" />
<vehicle id="type1_270" type="type1" route="es" depart="401.9915512437366" />
<vehicle id="type1_271" type="type1" route="sn" depart="404.7984221443363" />
<vehicle id="type1_272" type="type1" route="ew" depart="407.5648019170158" />
<vehicle id="type1_273" type="type1" route="we" depart="409.92987827907416" />
<vehicle id="type1_274" type="type1" route="ws" depart="410.9929456502148" />
<vehicle id="type1_275" type="type1" route="ne" depart="412.0655899831236" />
<vehicle id="type1_276" type="type1" route="es" depart="412.7304125445679" />
<vehicle id="type1_277" type="type1" route="ns" depart="414.7988893995684" />
<vehicle id="type1_278" type="type1" route="se" depart="415.7483016599313" />
<vehicle id="type1_279" type="type1" route="ns" depart="416.3219762724901" />
</routes>