<routes>
            <vType id="type1" accel="0.8" decel="4.5" sigma="0.5" length="5" maxSpeed="70"/>
            <vType id="rescue" vClass="emergency" speedFactor="1.5" guiShape="emergency">
                <param key="has.bluelight.device" value="true"/>
            </vType>
            <route id="ne" edges="ni eo"/>
            <route id="ns" edges="ni so"/>
            <route id="nw" edges="ni wo"/>
            <route id="en" edges="ei no"/>
            <route id="es" edges="ei so"/>
            <route id="ew" edges="ei wo"/>
            <route id="sn" edges="si no"/>
            <route id="se" edges="si eo"/>
            <route id="sw" edges="si wo"/>
            <route id="wn" edges="wi no"/>
            <route id="we" edges="wi eo"/>
            <route id="ws" edges="wi so"/>
        <vehicle id="type1_1" type="type1" route="wn" depart="0.11762223277245806" />
<vehicle id="type1_2" type="type1" route="sn" depart="0.4088895518598362" />
<vehicle id="type1_3" type="type1" route="en" depart="0.9386831847393096" />
<vehicle id="type1_4" type="type1" route="sn" depart="1.7403643274765623" />
<vehicle id="type1_5" type="type1" route="we" depart="3.49967800010026" />
<vehicle id="type1_6" type="type1" route="ne" depart="5.366627139967853" />
<vehicle id="type1_7" type="type1" route="ew" depart="8.093699153492741" />
<vehicle id="emv_1" type="rescue" route="ws" depart="8.151369120013916" />
<vehicle id="type1_8" type="type1" route="ne" depart="8.864749195216584" />
<vehicle id="type1_9" type="type1" route="nw" depart="10.309987175976335" />
<vehicle id="type1_10" type="type1" route="se" depart="10.939889432839141" />
<vehicle id="type1_11" type="type1" route="we" depart="15.21015306039532" />
<vehicle id="type1_12" type="type1" route="nw" depart="16.809169259825524" />
<vehicle id="type1_13" type="type1" route="we" depart="18.106819024365166" />
<vehicle id="type1_14" type="type1" route="sn" depart="21.102610851821133" />
<vehicle id="type1_15" type="type1" route="en" depart="22.242525227956918" />
<vehicle id="type1_16" type="type1" route="wn" depart="25.050470804024055" />
<vehicle id="type1_17" type="type1" route="wn" depart="25.327986284323448" />
<vehicle id="type1_18" type="type1" route="nw" depart="26.70327675890603" />
<vehicle id="type1_19" type="type1" route="es" depart="27.066284472959932" />
<vehicle id="type1_20" type="type1" route="en" depart="28.025401307074812" />
<vehicle id="type1_21" type="type1" route="sw" depart="29.38027134770006" />
<vehicle id="type1_22" type="type1" route="sn" depart="29.84614222233146" />
<vehicle id="type1_23" type="type1" route="wn" depart="32.07368755035361" />
<vehicle id="type1_24" type="type1" route="sw" depart="32.693828190922794" />
<vehicle id="type1_25" type="type1" route="en" depart="32.95068205211713" />
<vehicle id="type1_26" type="type1" route="en" depart="33.713457218018895" />
<vehicle id="type1_27" type="type1" route="sn" depart="33.90887674271198" />
<vehicle id="type1_28" type="type1" route="wn" depart="37.28144802947016" />
<vehicle id="type1_29" type="type1" route="sw" depart="37.68356145182218" />
<vehicle id="type1_30" type="type1" route="ns" depart="38.02551539550099" />
<vehicle id="type1_31" type="type1" route="wn" depart="43.45341671058068" />
<vehicle id="type1_32" type="type1" route="wn" depart="43.95670616632632" />
<vehicle id="type1_33" type="type1" route="ns" depart="43.99489842744846" />
<vehicle id="type1_34" type="type1" route="en" depart="47.148671314772855" />
<vehicle id="type1_35" type="type1" route="se" depart="48.3946761664352" />
<vehicle id="type1_36" type="type1" route="sn" depart="50.03155660144526" />
<vehicle id="type1_37" type="type1" route="es" depart="55.53648954277067" />
<vehicle id="type1_38" type="type1" route="sw" depart="57.76336761506103" />
<vehicle id="type1_39" type="type1" route="ns" depart="58.24445040157966" />
<vehicle id="type1_40" type="type1" route="es" depart="60.464530447376816" />
<vehicle id="type1_41" type="type1" route="we" depart="61.99865956165822" />
<vehicle id="type1_42" type="type1" route="nw" depart="62.962779925405805" />
<vehicle id="type1_43" type="type1" route="sn" depart="63.0011756473867" />
<vehicle id="type1_44" type="type1" route="ew" depart="64.21551775511159" />
<vehicle id="type1_45" type="type1" route="ne" depart="64.44056472624176" />
<vehicle id="type1_46" type="type1" route="ne" depart="64.50673993099623" />
<vehicle id="type1_47" type="type1" route="ew" depart="69.70865918365217" />
<vehicle id="type1_48" type="type1" route="es" depart="70.72930312384335" />
<vehicle id="type1_49" type="type1" route="wn" depart="71.3351389714223" />
<vehicle id="type1_50" type="type1" route="sn" depart="71.37932574236098" />
<vehicle id="type1_51" type="type1" route="en" depart="71.43473077114653" />
<vehicle id="type1_52" type="type1" route="es" depart="73.13074740008389" />
<vehicle id="type1_53" type="type1" route="wn" depart="73.25495865798929" />
<vehicle id="type1_54" type="type1" route="nw" depart="75.01723124665082" />
<vehicle id="type1_55" type="type1" route="sn" depart="75.89111154441994" />
<vehicle id="type1_56" type="type1" route="nw" depart="77.2167571762456" />
<vehicle id="type1_57" type="type1" route="wn" depart="78.14610096608762" />
<vehicle id="type1_58" type="type1" route="se" depart="79.25177238881672" />
<vehicle id="type1_59" type="type1" route="nw" depart="83.87739873933921" />
<vehicle id="type1_60" type="type1" route="ns" depart="84.26629630056136" />
<vehicle id="type1_61" type="type1" route="se" depart="84.93335714289914" />
<vehicle id="type1_62" type="type1" route="ne" depart="85.86217579026867" />
<vehicle id="type1_63" type="type1" route="ns" depart="87.20693043626814" />
<vehicle id="type1_64" type="type1" route="ns" depart="88.24650763491081" />
<vehicle id="type1_65" type="type1" route="wn" depart="90.271574986892" />
<vehicle id="type1_66" type="type1" route="sn" depart="95.64307187403297" />
<vehicle id="type1_67" type="type1" route="se" depart="95.83139062365667" />
<vehicle id="type1_68" type="type1" route="sn" depart="96.51926394236112" />
<vehicle id="type1_69" type="type1" route="es" depart="97.18659416912952" />
<vehicle id="type1_70" type="type1" route="ws" depart="98.05820677734626" />
<vehicle id="type1_71" type="type1" route="ew" depart="100.17039269080573" />
<vehicle id="type1_72" type="type1" route="sw" depart="111.65821420127402" />
<vehicle id="type1_73" type="type1" route="en" depart="111.75808181784811" />
<vehicle id="type1_74" type="type1" route="ne" depart="112.6069882999669" />
<vehicle id="type1_75" type="type1" route="we" depart="113.99688253542375" />
<vehicle id="type1_76" type="type1" route="wn" depart="114.73482571364072" />
<vehicle id="type1_77" type="type1" route="sn" depart="116.12472998421964" />
<vehicle id="type1_78" type="type1" route="ns" depart="116.1660662543331" />
<vehicle id="type1_79" type="type1" route="se" depart="116.2258868882545" />
<vehicle id="type1_80" type="type1" route="en" depart="121.07896416832435" />
<vehicle id="type1_81" type="type1" route="ns" depart="121.40236953294159" />
<vehicle id="type1_82" type="type1" route="sw" depart="121.74071339567966" />
<vehicle id="emv_2" type="rescue" route="ns" depart="122.55892177293045" />
<vehicle id="type1_83" type="type1" route="es" depart="124.57177152860658" />
<vehicle id="type1_84" type="type1" route="sn" depart="126.64272820239255" />
<vehicle id="type1_85" type="type1" route="wn" depart="127.73279318234206" />
<vehicle id="emv_3" type="rescue" route="en" depart="128.10430316372714" />
<vehicle id="type1_86" type="type1" route="nw" depart="128.14457310578123" />
<vehicle id="type1_87" type="type1" route="en" depart="128.4529205722445" />
<vehicle id="type1_88" type="type1" route="ns" depart="129.58903410429835" />
<vehicle id="type1_89" type="type1" route="es" depart="129.94746595677108" />
<vehicle id="type1_90" type="type1" route="sn" depart="130.5355545891595" />
<vehicle id="type1_91" type="type1" route="ws" depart="130.76323282450846" />
<vehicle id="type1_92" type="type1" route="ws" depart="132.55570396766078" />
<vehicle id="type1_93" type="type1" route="we" depart="134.94254656968684" />
<vehicle id="type1_94" type="type1" route="en" depart="135.08175051792443" />
<vehicle id="type1_95" type="type1" route="ew" depart="137.63424617668673" />
<vehicle id="type1_96" type="type1" route="we" depart="138.6135785224357" />
<vehicle id="type1_97" type="type1" route="se" depart="142.550307054895" />
<vehicle id="type1_98" type="type1" route="se" depart="143.85598160447813" />
<vehicle id="type1_99" type="type1" route="we" depart="145.92104668700222" />
<vehicle id="type1_100" type="type1" route="se" depart="145.97655478400583" />
<vehicle id="type1_101" type="type1" route="ne" depart="146.2896498035029" />
<vehicle id="type1_102" type="type1" route="ew" depart="146.62218161489594" />
<vehicle id="type1_103" type="type1" route="en" depart="146.74733166010648" />
<vehicle id="type1_104" type="type1" route="es" depart="146.80316014332996" />
<vehicle id="type1_105" type="type1" route="es" depart="151.23211176021135" />
<vehicle id="type1_106" type="type1" route="sw" depart="153.3954243021873" />
<vehicle id="type1_107" type="type1" route="se" depart="156.72584773916853" />
<vehicle id="type1_108" type="type1" route="ew" depart="157.4721936678158" />
<vehicle id="type1_109" type="type1" route="es" depart="157.8872790611595" />
<vehicle id="type1_110" type="type1" route="sn" depart="159.60652299005085" />
<vehicle id="type1_111" type="type1" route="wn" depart="162.20339567236334" />
<vehicle id="type1_112" type="type1" route="ws" depart="164.08334894358882" />
<vehicle id="type1_113" type="type1" route="ew" depart="164.5520148630808" />
<vehicle id="type1_114" type="type1" route="se" depart="164.56629199672366" />
<vehicle id="type1_115" type="type1" route="nw" depart="165.25535669460584" />
<vehicle id="type1_116" type="type1" route="se" depart="166.80088413903445" />
<vehicle id="type1_117" type="type1" route="ns" depart="169.05512887591738" />
<vehicle id="type1_118" type="type1" route="ws" depart="169.40983976485347" />
<vehicle id="type1_119" type="type1" route="ne" depart="171.51754811589518" />
<vehicle id="type1_120" type="type1" route="we" depart="171.95301499451475" />
<vehicle id="type1_121" type="type1" route="ws" depart="172.66078926808166" />
<vehicle id="type1_122" type="type1" route="ew" depart="174.41281301748336" />
<vehicle id="type1_123" type="type1" route="nw" depart="178.16244331723442" />
<vehicle id="type1_124" type="type1" route="es" depart="184.1771913569074" />
<vehicle id="type1_125" type="type1" route="ne" depart="185.02075648363387" />
<vehicle id="type1_126" type="type1" route="ws" depart="187.15437174319848" />
<vehicle id="type1_127" type="type1" route="se" depart="188.48630518544113" />
<vehicle id="emv_4" type="rescue" route="wn" depart="189.45547518029662" />
<vehicle id="type1_128" type="type1" route="wn" depart="191.1388864157001" />
<vehicle id="type1_129" type="type1" route="en" depart="194.52839514425108" />
<vehicle id="type1_130" type="type1" route="wn" depart="194.87207150415495" />
<vehicle id="type1_131" type="type1" route="wn" depart="195.4892790788817" />
<vehicle id="type1_132" type="type1" route="ew" depart="195.69066042033955" />
<vehicle id="type1_133" type="type1" route="we" depart="195.78884321614765" />
<vehicle id="type1_134" type="type1" route="ne" depart="197.76027725941162" />
<vehicle id="type1_135" type="type1" route="ew" depart="198.96698004591283" />
<vehicle id="type1_136" type="type1" route="se" depart="199.1616637208194" />
<vehicle id="type1_137" type="type1" route="we" depart="200.74671653426722" />
<vehicle id="type1_138" type="type1" route="nw" depart="203.17656592790448" />
<vehicle id="emv_5" type="rescue" route="ew" depart="204.17945979845348" />
<vehicle id="type1_139" type="type1" route="ne" depart="204.2270118033682" />
<vehicle id="type1_140" type="type1" route="sw" depart="204.2377829701573" />
<vehicle id="type1_141" type="type1" route="ew" depart="206.09514112884645" />
<vehicle id="type1_142" type="type1" route="sn" depart="209.87867427105533" />
<vehicle id="type1_143" type="type1" route="ew" depart="210.06194702641193" />
<vehicle id="type1_144" type="type1" route="sn" depart="213.3048463991566" />
<vehicle id="type1_145" type="type1" route="wn" depart="213.68038395792803" />
<vehicle id="emv_6" type="rescue" route="sn" depart="214.04892850267717" />
<vehicle id="type1_146" type="type1" route="nw" depart="214.24161242747218" />
<vehicle id="type1_147" type="type1" route="se" depart="214.5798232495349" />
<vehicle id="type1_148" type="type1" route="ew" depart="216.5010087080833" />
<vehicle id="type1_149" type="type1" route="sw" depart="222.63047616333336" />
<vehicle id="type1_150" type="type1" route="en" depart="224.18207889788405" />
<vehicle id="type1_151" type="type1" route="we" depart="224.96261109965513" />
<vehicle id="type1_152" type="type1" route="nw" depart="227.72295641932115" />
<vehicle id="type1_153" type="type1" route="en" depart="228.20725805916632" />
<vehicle id="type1_154" type="type1" route="ew" depart="230.92893507759914" />
<vehicle id="type1_155" type="type1" route="ne" depart="231.10400294996595" />
<vehicle id="type1_156" type="type1" route="nw" depart="231.95179608464954" />
<vehicle id="type1_157" type="type1" route="en" depart="232.10019983014345" />
<vehicle id="type1_158" type="type1" route="nw" depart="232.5993659091799" />
<vehicle id="type1_159" type="type1" route="wn" depart="236.6348607732672" />
<vehicle id="type1_160" type="type1" route="nw" depart="236.85037932061354" />
<vehicle id="type1_161" type="type1" route="ne" depart="239.50174477687466" />
<vehicle id="type1_162" type="type1" route="se" depart="239.81194554117457" />
<vehicle id="type1_163" type="type1" route="en" depart="241.86225243327783" />
<vehicle id="type1_164" type="type1" route="nw" depart="241.99235261815394" />
<vehicle id="type1_165" type="type1" route="sn" depart="242.02072308320757" />
<vehicle id="type1_166" type="type1" route="ew" depart="243.96552722993502" />
<vehicle id="type1_167" type="type1" route="nw" depart="244.5682298163827" />
<vehicle id="type1_168" type="type1" route="nw" depart="245.3729063497909" />
<vehicle id="type1_169" type="type1" route="se" depart="246.02041535295476" />
<vehicle id="type1_170" type="type1" route="we" depart="246.695605129324" />
<vehicle id="type1_171" type="type1" route="se" depart="246.74404428459277" />
<vehicle id="type1_172" type="type1" route="se" depart="246.77184997644335" />
<vehicle id="type1_173" type="type1" route="ns" depart="246.90306017608512" />
<vehicle id="type1_174" type="type1" route="se" depart="249.08157562504417" />
<vehicle id="type1_175" type="type1" route="es" depart="249.20004771363924" />
<vehicle id="type1_176" type="type1" route="sw" depart="249.77822486218656" />
<vehicle id="type1_177" type="type1" route="ns" depart="252.38957454603704" />
<vehicle id="type1_178" type="type1" route="sw" depart="253.0785561378313" />
<vehicle id="type1_179" type="type1" route="wn" depart="253.8774603539931" />
<vehicle id="type1_180" type="type1" route="es" depart="258.60899773369044" />
<vehicle id="type1_181" type="type1" route="nw" depart="259.6652888777166" />
<vehicle id="type1_182" type="type1" route="se" depart="260.56441110803746" />
<vehicle id="type1_183" type="type1" route="ns" depart="260.82496276299196" />
<vehicle id="type1_184" type="type1" route="sn" depart="261.26622727079405" />
<vehicle id="type1_185" type="type1" route="se" depart="262.7285959477629" />
<vehicle id="type1_186" type="type1" route="es" depart="263.2941347998224" />
<vehicle id="type1_187" type="type1" route="en" depart="267.4525287028244" />
<vehicle id="type1_188" type="type1" route="sw" depart="268.91148690370983" />
<vehicle id="type1_189" type="type1" route="ns" depart="269.90525299953345" />
<vehicle id="type1_190" type="type1" route="ne" depart="271.45332263334063" />
<vehicle id="type1_191" type="type1" route="se" depart="271.92209385365675" />
<vehicle id="type1_192" type="type1" route="nw" depart="272.42966897053253" />
<vehicle id="type1_193" type="type1" route="ew" depart="273.01944619158905" />
<vehicle id="emv_7" type="rescue" route="sn" depart="281.08322542495057" />
<vehicle id="type1_194" type="type1" route="nw" depart="281.5576764018287" />
<vehicle id="type1_195" type="type1" route="nw" depart="284.13573894261197" />
<vehicle id="type1_196" type="type1" route="en" depart="286.08099493355445" />
<vehicle id="type1_197" type="type1" route="en" depart="286.09923483011835" />
<vehicle id="type1_198" type="type1" route="sw" depart="288.85622646484444" />
<vehicle id="type1_199" type="type1" route="se" depart="288.956377093659" />
<vehicle id="type1_200" type="type1" route="ne" depart="293.4378920923191" />
<vehicle id="type1_201" type="type1" route="ns" depart="295.7610764595725" />
<vehicle id="type1_202" type="type1" route="ne" depart="295.7922026735879" />
<vehicle id="type1_203" type="type1" route="nw" depart="298.71355909898284" />
<vehicle id="type1_204" type="type1" route="se" depart="299.8803159151971" />
<vehicle id="type1_205" type="type1" route="we" depart="300.2661775947075" />
<vehicle id="type1_206" type="type1" route="we" depart="300.5912315857489" />
<vehicle id="type1_207" type="type1" route="se" depart="302.4012067141655" />
<vehicle id="type1_208" type="type1" route="sw" depart="302.7269364881493" />
<vehicle id="type1_209" type="type1" route="ws" depart="302.93885987945583" />
<vehicle id="type1_210" type="type1" route="sn" depart="305.29994420127633" />
<vehicle id="type1_211" type="type1" route="nw" depart="306.217618156176" />
<vehicle id="type1_212" type="type1" route="we" depart="306.50773329935754" />
<vehicle id="type1_213" type="type1" route="ws" depart="309.32020244132093" />
<vehicle id="type1_214" type="type1" route="we" depart="310.7039682750106" />
<vehicle id="type1_215" type="type1" route="es" depart="311.1942593104066" />
<vehicle id="type1_216" type="type1" route="ns" depart="313.47923685090217" />
<vehicle id="type1_217" type="type1" route="nw" depart="317.4722931033312" />
<vehicle id="type1_218" type="type1" route="sw" depart="318.46437175995436" />
<vehicle id="type1_219" type="type1" route="ns" depart="318.68251853307027" />
<vehicle id="type1_220" type="type1" route="es" depart="319.1279958932703" />
<vehicle id="type1_221" type="type1" route="ew" depart="319.84750981586166" />
<vehicle id="type1_222" type="type1" route="wn" depart="320.2963619556548" />
<vehicle id="type1_223" type="type1" route="sw" depart="322.1171727515471" />
<vehicle id="type1_224" type="type1" route="sw" depart="324.0673931998317" />
<vehicle id="type1_225" type="type1" route="ne" depart="326.158248927855" />
<vehicle id="type1_226" type="type1" route="wn" depart="326.59778600914797" />
<vehicle id="type1_227" type="type1" route="en" depart="326.7096453116963" />
<vehicle id="type1_228" type="type1" route="en" depart="327.8385606818893" />
<vehicle id="type1_229" type="type1" route="ws" depart="329.18357296953627" />
<vehicle id="type1_230" type="type1" route="nw" depart="329.92789980512424" />
<vehicle id="type1_231" type="type1" route="ew" depart="330.4793411033819" />
<vehicle id="type1_232" type="type1" route="ws" depart="330.60094955591285" />
<vehicle id="type1_233" type="type1" route="es" depart="330.82921416553603" />
<vehicle id="type1_234" type="type1" route="sn" depart="330.90100719035485" />
<vehicle id="type1_235" type="type1" route="we" depart="331.2022394487854" />
<vehicle id="type1_236" type="type1" route="se" depart="332.51071402610825" />
<vehicle id="type1_237" type="type1" route="sn" depart="334.6913254450854" />
<vehicle id="type1_238" type="type1" route="ws" depart="335.4575704613553" />
<vehicle id="type1_239" type="type1" route="nw" depart="335.62441304607734" />
<vehicle id="type1_240" type="type1" route="we" depart="337.95100208463043" />
<vehicle id="type1_241" type="type1" route="ne" depart="338.1389532421892" />
<vehicle id="type1_242" type="type1" route="se" depart="340.5514252986163" />
<vehicle id="type1_243" type="type1" route="ws" depart="340.95724489587394" />
<vehicle id="type1_244" type="type1" route="en" depart="341.29578901203587" />
<vehicle id="type1_245" type="type1" route="ew" depart="341.4535715376891" />
<vehicle id="type1_246" type="type1" route="wn" depart="342.96925854584106" />
<vehicle id="type1_247" type="type1" route="sw" depart="343.8624760125565" />
<vehicle id="type1_248" type="type1" route="we" depart="344.59834783631925" />
<vehicle id="type1_249" type="type1" route="ws" depart="346.3293018768566" />
<vehicle id="type1_250" type="type1" route="nw" depart="347.5766344938673" />
<vehicle id="type1_251" type="type1" route="ne" depart="347.62705731868294" />
<vehicle id="type1_252" type="type1" route="sw" depart="348.70152522952753" />
<vehicle id="type1_253" type="type1" route="se" depart="349.84804537304103" />
<vehicle id="type1_254" type="type1" route="ns" depart="349.86973561489054" />
<vehicle id="type1_255" type="type1" route="ws" depart="350.40548358457085" />
<vehicle id="emv_8" type="rescue" route="ne" depart="350.828150306257" />
<vehicle id="type1_256" type="type1" route="ew" depart="352.86789028288723" />
<vehicle id="type1_257" type="type1" route="we" depart="353.17056252993507" />
<vehicle id="type1_258" type="type1" route="wn" depart="354.6374945949907" />
<vehicle id="type1_259" type="type1" route="ws" depart="357.5336159507964" />
<vehicle id="type1_260" type="type1" route="ns" depart="359.67914729189476" />
<vehicle id="type1_261" type="type1" route="ew" depart="360.2303478509822" />
<vehicle id="type1_262" type="type1" route="se" depart="362.0018814326031" />
<vehicle id="type1_263" type="type1" route="ws" depart="362.0762550436734" />
<vehicle id="type1_264" type="type1" route="we" depart="363.56230670633465" />
<vehicle id="type1_265" type="type1" route="ws" depart="363.7032430208431" />
<vehicle id="type1_266" type="type1" route="we" depart="364.1204384896367" />
<vehicle id="type1_267" type="type1" route="en" depart="366.8926070317604" />
<vehicle id="type1_268" type="type1" route="se" depart="368.35606286550365" />
<vehicle id="type1_269" type="type1" route="sw" depart="374.7474766162595" />
<vehicle id="type1_270" type="type1" route="we" depart="374.7807998183589" />
<vehicle id="type1_271" type="type1" route="we" depart="375.1518882066277" />
<vehicle id="emv_9" type="rescue" route="en" depart="376.61036892329963" />
<vehicle id="type1_272" type="type1" route="sw" depart="377.26797268199084" />
<vehicle id="type1_273" type="type1" route="nw" depart="377.8745878613601" />
<vehicle id="type1_274" type="type1" route="wn" depart="378.40248227368045" />
<vehicle id="type1_275" type="type1" route="ns" depart="381.12214003551566" />
<vehicle id="type1_276" type="type1" route="sn" depart="381.53176419262854" />
<vehicle id="type1_277" type="type1" route="en" depart="381.8815299454689" />
<vehicle id="type1_278" type="type1" route="sn" depart="382.99863796262173" />
<vehicle id="type1_279" type="type1" route="nw" depart="383.5739562884572" />
<vehicle id="type1_280" type="type1" route="we" depart="384.31125318090875" />
<vehicle id="type1_281" type="type1" route="ew" depart="384.42150063125183" />
<vehicle id="type1_282" type="type1" route="es" depart="386.16750845893205" />
<vehicle id="type1_283" type="type1" route="sn" depart="386.2112683932898" />
<vehicle id="type1_284" type="type1" route="ew" depart="389.38310741398425" />
<vehicle id="type1_285" type="type1" route="we" depart="391.04275398286336" />
<vehicle id="type1_286" type="type1" route="ws" depart="391.10589205010166" />
<vehicle id="type1_287" type="type1" route="ne" depart="391.96257732770493" />
<vehicle id="type1_288" type="type1" route="es" depart="392.2013822212576" />
<vehicle id="type1_289" type="type1" route="ns" depart="392.57772141267026" />
<vehicle id="type1_290" type="type1" route="se" depart="392.89203242375675" />
<vehicle id="type1_291" type="type1" route="ns" depart="394.00624905682474" />
</routes>