<routes>
            <vType id="type1" accel="0.8" decel="4.5" sigma="0.5" length="5" maxSpeed="70"/>
            <vType id="rescue" vClass="emergency" speedFactor="1.5" guiShape="emergency">
                <param key="has.bluelight.device" value="true"/>
            </vType>
            <route id="ne" edges="ni eo"/>
            <route id="ns" edges="ni so"/>
            <route id="nw" edges="ni wo"/>
            <route id="en" edges="ei no"/>
            <route id="es" edges="ei so"/>
            <route id="ew" edges="ei wo"/>
            <route id="sn" edges="si no"/>
            <route id="se" edges="si eo"/>
            <route id="sw" edges="si wo"/>
            <route id="wn" edges="wi no"/>
            <route id="we" edges="wi eo"/>
            <route id="ws" edges="wi so"/>
        <vehicle id="type1_1" type="type1" route="wn" depart="1.9652263099341005" />
<vehicle id="type1_2" type="type1" route="sn" depart="2.3348080639247972" />
<vehicle id="type1_3" type="type1" route="en" depart="3.024003162032806" />
<vehicle id="type1_4" type="type1" route="sn" depart="3.024876759011548" />
<vehicle id="type1_5" type="type1" route="we" depart="5.4159230468048545" />
<vehicle id="type1_6" type="type1" route="ne" depart="6.716263523627081" />
<vehicle id="type1_7" type="type1" route="ew" depart="13.47274852522863" />
<vehicle id="type1_8" type="type1" route="ws" depart="13.598461994840948" />
<vehicle id="type1_9" type="type1" route="ne" depart="14.209114239930171" />
<vehicle id="type1_10" type="type1" route="nw" depart="16.37392000792126" />
<vehicle id="type1_11" type="type1" route="se" depart="19.085075121842586" />
<vehicle id="type1_12" type="type1" route="we" depart="20.101277550899447" />
<vehicle id="type1_13" type="type1" route="nw" depart="22.29594706906982" />
<vehicle id="type1_14" type="type1" route="we" depart="22.31245603386249" />
<vehicle id="type1_15" type="type1" route="sn" depart="23.79151841553687" />
<vehicle id="type1_16" type="type1" route="en" depart="27.437375677686667" />
<vehicle id="type1_17" type="type1" route="wn" depart="27.45761535645375" />
<vehicle id="type1_18" type="type1" route="wn" depart="31.358261053238962" />
<vehicle id="type1_19" type="type1" route="nw" depart="34.61964856742465" />
<vehicle id="type1_20" type="type1" route="es" depart="35.21502699255189" />
<vehicle id="type1_21" type="type1" route="en" depart="35.78672706952199" />
<vehicle id="type1_22" type="type1" route="sw" depart="39.84975866087058" />
<vehicle id="type1_23" type="type1" route="sn" depart="40.03554482650422" />
<vehicle id="type1_24" type="type1" route="wn" depart="41.51071049232024" />
<vehicle id="type1_25" type="type1" route="sw" depart="43.30827142619636" />
<vehicle id="type1_26" type="type1" route="en" depart="43.45869268515416" />
<vehicle id="type1_27" type="type1" route="en" depart="45.35387374497043" />
<vehicle id="type1_28" type="type1" route="sn" depart="48.693484232556045" />
<vehicle id="type1_29" type="type1" route="wn" depart="50.73065848523661" />
<vehicle id="type1_30" type="type1" route="sw" depart="51.32503115162579" />
<vehicle id="type1_31" type="type1" route="ns" depart="52.38258168805572" />
<vehicle id="type1_32" type="type1" route="wn" depart="53.08059275988259" />
<vehicle id="type1_33" type="type1" route="wn" depart="53.20407061343962" />
<vehicle id="type1_34" type="type1" route="ns" depart="53.447355709298584" />
<vehicle id="type1_35" type="type1" route="en" depart="55.571340009198956" />
<vehicle id="type1_36" type="type1" route="se" depart="58.59319267232074" />
<vehicle id="type1_37" type="type1" route="sn" depart="59.53490645537029" />
<vehicle id="type1_38" type="type1" route="es" depart="59.57858659532925" />
<vehicle id="type1_39" type="type1" route="sw" depart="59.61861246547681" />
<vehicle id="type1_40" type="type1" route="ns" depart="61.00137656248948" />
<vehicle id="type1_41" type="type1" route="es" depart="61.145438182583966" />
<vehicle id="type1_42" type="type1" route="we" depart="66.15899929398655" />
<vehicle id="type1_43" type="type1" route="nw" depart="68.36389035037114" />
<vehicle id="type1_44" type="type1" route="sn" depart="69.20634307312807" />
<vehicle id="type1_45" type="type1" route="ew" depart="70.81340393958813" />
<vehicle id="type1_46" type="type1" route="ne" depart="70.92146623398564" />
<vehicle id="type1_47" type="type1" route="ne" depart="73.88747880757646" />
<vehicle id="type1_48" type="type1" route="ew" depart="76.26307650910486" />
<vehicle id="type1_49" type="type1" route="es" depart="76.35778713789259" />
<vehicle id="type1_50" type="type1" route="wn" depart="77.48874841196853" />
<vehicle id="type1_51" type="type1" route="sn" depart="78.26921761700106" />
<vehicle id="type1_52" type="type1" route="en" depart="78.36822565515506" />
<vehicle id="type1_53" type="type1" route="es" depart="78.88679442316017" />
<vehicle id="type1_54" type="type1" route="wn" depart="79.06787948258236" />
<vehicle id="type1_55" type="type1" route="nw" depart="79.45184394422706" />
<vehicle id="type1_56" type="type1" route="sn" depart="80.97506650416233" />
<vehicle id="type1_57" type="type1" route="nw" depart="81.06213318634708" />
<vehicle id="type1_58" type="type1" route="wn" depart="81.45013167123822" />
<vehicle id="type1_59" type="type1" route="se" depart="84.28465720271012" />
<vehicle id="type1_60" type="type1" route="nw" depart="84.36902511648282" />
<vehicle id="type1_61" type="type1" route="ns" depart="88.9148820666549" />
<vehicle id="type1_62" type="type1" route="se" depart="88.94973178659711" />
<vehicle id="type1_63" type="type1" route="ne" depart="89.75009353973807" />
<vehicle id="type1_64" type="type1" route="ns" depart="91.77072129338094" />
<vehicle id="type1_65" type="type1" route="ns" depart="92.69588775192764" />
<vehicle id="type1_66" type="type1" route="wn" depart="92.90336152428155" />
<vehicle id="type1_67" type="type1" route="sn" depart="93.6969297606461" />
<vehicle id="type1_68" type="type1" route="se" depart="97.97034880378412" />
<vehicle id="type1_69" type="type1" route="sn" depart="99.41525983820328" />
<vehicle id="type1_70" type="type1" route="es" depart="100.73499036802447" />
<vehicle id="type1_71" type="type1" route="ws" depart="103.9066159076374" />
<vehicle id="type1_72" type="type1" route="ew" depart="104.18361407079118" />
<vehicle id="type1_73" type="type1" route="sw" depart="104.36884806979525" />
<vehicle id="type1_74" type="type1" route="en" depart="104.50464996889674" />
<vehicle id="type1_75" type="type1" route="ne" depart="105.46402943992682" />
<vehicle id="type1_76" type="type1" route="we" depart="105.60243878615597" />
<vehicle id="type1_77" type="type1" route="wn" depart="106.85730132648645" />
<vehicle id="type1_78" type="type1" route="sn" depart="107.2995958858636" />
<vehicle id="type1_79" type="type1" route="ns" depart="107.34269874141141" />
<vehicle id="type1_80" type="type1" route="se" depart="108.2613072652966" />
<vehicle id="type1_81" type="type1" route="en" depart="109.56339820230438" />
<vehicle id="type1_82" type="type1" route="ns" depart="111.12554574490754" />
<vehicle id="type1_83" type="type1" route="sw" depart="112.25014166900421" />
<vehicle id="type1_84" type="type1" route="ns" depart="112.50278872366013" />
<vehicle id="type1_85" type="type1" route="es" depart="115.4093385177912" />
<vehicle id="type1_86" type="type1" route="sn" depart="115.70037989239253" />
<vehicle id="type1_87" type="type1" route="wn" depart="116.1702194511311" />
<vehicle id="type1_88" type="type1" route="en" depart="117.21385003647183" />
<vehicle id="type1_89" type="type1" route="nw" depart="117.66600762263278" />
<vehicle id="type1_90" type="type1" route="en" depart="118.56270599205249" />
<vehicle id="type1_91" type="type1" route="ns" depart="119.63738657532845" />
<vehicle id="type1_92" type="type1" route="es" depart="120.44711239936517" />
<vehicle id="type1_93" type="type1" route="sn" depart="125.41403702121325" />
<vehicle id="type1_94" type="type1" route="ws" depart="127.00617916074508" />
<vehicle id="type1_95" type="type1" route="ws" depart="130.06181776333267" />
<vehicle id="type1_96" type="type1" route="we" depart="131.37162190190793" />
<vehicle id="type1_97" type="type1" route="en" depart="136.36258192924532" />
<vehicle id="type1_98" type="type1" route="ew" depart="136.67024916848425" />
<vehicle id="type1_99" type="type1" route="we" depart="138.0060331047092" />
<vehicle id="type1_100" type="type1" route="se" depart="138.83400159241756" />
<vehicle id="type1_101" type="type1" route="se" depart="139.02496098143715" />
<vehicle id="type1_102" type="type1" route="we" depart="139.29004582551295" />
<vehicle id="type1_103" type="type1" route="se" depart="139.94548963957288" />
<vehicle id="type1_104" type="type1" route="ne" depart="141.4924721393928" />
<vehicle id="type1_105" type="type1" route="ew" depart="142.48350390483714" />
<vehicle id="type1_106" type="type1" route="en" depart="149.27520380242152" />
<vehicle id="type1_107" type="type1" route="es" depart="151.835774557016" />
<vehicle id="type1_108" type="type1" route="es" depart="156.40144662133423" />
<vehicle id="type1_109" type="type1" route="sw" depart="158.50196952926052" />
<vehicle id="type1_110" type="type1" route="se" depart="160.413264365782" />
<vehicle id="type1_111" type="type1" route="ew" depart="160.84821092455041" />
<vehicle id="type1_112" type="type1" route="es" depart="161.37533916480024" />
<vehicle id="type1_113" type="type1" route="sn" depart="161.65592702483818" />
<vehicle id="type1_114" type="type1" route="wn" depart="162.0986813505544" />
<vehicle id="type1_115" type="type1" route="ws" depart="162.20153068171751" />
<vehicle id="type1_116" type="type1" route="ew" depart="162.6933059181151" />
<vehicle id="type1_117" type="type1" route="se" depart="163.02538705374033" />
<vehicle id="type1_118" type="type1" route="nw" depart="166.8550562696031" />
<vehicle id="type1_119" type="type1" route="se" depart="168.1641032958576" />
<vehicle id="type1_120" type="type1" route="ns" depart="168.9590934957609" />
<vehicle id="type1_121" type="type1" route="ws" depart="169.32376832861672" />
<vehicle id="type1_122" type="type1" route="ne" depart="169.70369955056367" />
<vehicle id="type1_123" type="type1" route="we" depart="170.4803806500775" />
<vehicle id="type1_124" type="type1" route="ws" depart="170.79530223511506" />
<vehicle id="type1_125" type="type1" route="ew" depart="175.72838204552744" />
<vehicle id="type1_126" type="type1" route="nw" depart="176.02752415775566" />
<vehicle id="type1_127" type="type1" route="es" depart="176.29596562330156" />
<vehicle id="type1_128" type="type1" route="ne" depart="179.4582655034037" />
<vehicle id="type1_129" type="type1" route="ws" depart="184.86851741830353" />
<vehicle id="type1_130" type="type1" route="se" depart="184.95179369984888" />
<vehicle id="type1_131" type="type1" route="wn" depart="185.3641268563131" />
<vehicle id="type1_132" type="type1" route="wn" depart="185.50577516733642" />
<vehicle id="type1_133" type="type1" route="en" depart="186.6773140599563" />
<vehicle id="type1_134" type="type1" route="wn" depart="188.5981746196214" />
<vehicle id="type1_135" type="type1" route="wn" depart="191.02765326415755" />
<vehicle id="type1_136" type="type1" route="ew" depart="192.63352692738346" />
<vehicle id="type1_137" type="type1" route="we" depart="194.77272264783178" />
<vehicle id="type1_138" type="type1" route="ne" depart="196.5943140306206" />
<vehicle id="type1_139" type="type1" route="ew" depart="197.05717581910605" />
<vehicle id="type1_140" type="type1" route="se" depart="197.3179892678386" />
<vehicle id="type1_141" type="type1" route="we" depart="199.47049166957322" />
<vehicle id="type1_142" type="type1" route="nw" depart="200.4520704881491" />
<vehicle id="type1_143" type="type1" route="ew" depart="200.91656206265773" />
<vehicle id="type1_144" type="type1" route="ne" depart="201.76832331260687" />
<vehicle id="type1_145" type="type1" route="sw" depart="202.61396588214149" />
<vehicle id="type1_146" type="type1" route="ew" depart="203.1134567561429" />
<vehicle id="type1_147" type="type1" route="sn" depart="203.39027727563666" />
<vehicle id="type1_148" type="type1" route="ew" depart="207.63141716042753" />
<vehicle id="type1_149" type="type1" route="sn" depart="207.96547934291306" />
<vehicle id="type1_150" type="type1" route="wn" depart="209.1103008663021" />
<vehicle id="type1_151" type="type1" route="sn" depart="209.65369704729798" />
<vehicle id="type1_152" type="type1" route="nw" depart="210.7275290297498" />
<vehicle id="type1_153" type="type1" route="se" depart="210.7667366150983" />
<vehicle id="type1_154" type="type1" route="ew" depart="211.3652417562981" />
<vehicle id="type1_155" type="type1" route="sw" depart="211.79274492725176" />
<vehicle id="type1_156" type="type1" route="en" depart="216.6432094635881" />
<vehicle id="type1_157" type="type1" route="we" depart="220.53919831298782" />
<vehicle id="type1_158" type="type1" route="nw" depart="221.98880256208895" />
<vehicle id="type1_159" type="type1" route="en" depart="223.90933023261383" />
<vehicle id="type1_160" type="type1" route="ew" depart="224.39838415192102" />
<vehicle id="type1_161" type="type1" route="ne" depart="224.60965034793523" />
<vehicle id="type1_162" type="type1" route="nw" depart="224.87973707086027" />
<vehicle id="type1_163" type="type1" route="en" depart="225.60986128623142" />
<vehicle id="type1_164" type="type1" route="nw" depart="226.8607047850426" />
<vehicle id="type1_165" type="type1" route="wn" depart="227.0468286139064" />
<vehicle id="type1_166" type="type1" route="nw" depart="227.29511721153688" />
<vehicle id="type1_167" type="type1" route="ne" depart="227.99677946977096" />
<vehicle id="type1_168" type="type1" route="se" depart="229.2466113649951" />
<vehicle id="type1_169" type="type1" route="en" depart="230.26274538514699" />
<vehicle id="type1_170" type="type1" route="nw" depart="232.85174040924662" />
<vehicle id="type1_171" type="type1" route="sn" depart="234.44331350586629" />
<vehicle id="type1_172" type="type1" route="ew" depart="234.69854875980118" />
<vehicle id="type1_173" type="type1" route="nw" depart="236.79786849615985" />
<vehicle id="type1_174" type="type1" route="nw" depart="238.32218554411455" />
<vehicle id="type1_175" type="type1" route="se" depart="239.5944101817204" />
<vehicle id="type1_176" type="type1" route="we" depart="244.25608303649332" />
<vehicle id="type1_177" type="type1" route="se" depart="244.44766633649925" />
<vehicle id="type1_178" type="type1" route="se" depart="247.06303528108006" />
<vehicle id="type1_179" type="type1" route="ns" depart="247.46034910043863" />
<vehicle id="type1_180" type="type1" route="se" depart="247.48467205494916" />
<vehicle id="type1_181" type="type1" route="es" depart="251.9844397905463" />
<vehicle id="type1_182" type="type1" route="sw" depart="253.28597721278894" />
<vehicle id="type1_183" type="type1" route="ns" depart="254.12056000625634" />
<vehicle id="type1_184" type="type1" route="sw" depart="254.20353720750083" />
<vehicle id="type1_185" type="type1" route="wn" depart="256.021527117699" />
<vehicle id="type1_186" type="type1" route="es" depart="257.53533828474116" />
<vehicle id="type1_187" type="type1" route="nw" depart="257.970335441314" />
<vehicle id="type1_188" type="type1" route="se" depart="259.2571960022413" />
<vehicle id="type1_189" type="type1" route="ns" depart="259.34699809746223" />
<vehicle id="type1_190" type="type1" route="sn" depart="260.6335649102711" />
<vehicle id="type1_191" type="type1" route="se" depart="261.1930140285701" />
<vehicle id="type1_192" type="type1" route="es" depart="261.28003022354386" />
<vehicle id="type1_193" type="type1" route="en" depart="262.4431096852553" />
<vehicle id="type1_194" type="type1" route="sw" depart="263.22921654463875" />
<vehicle id="type1_195" type="type1" route="ns" depart="265.47882120328154" />
<vehicle id="type1_196" type="type1" route="ne" depart="265.6215508287639" />
<vehicle id="type1_197" type="type1" route="se" depart="267.83096380672356" />
<vehicle id="type1_198" type="type1" route="nw" depart="270.9893530900572" />
<vehicle id="type1_199" type="type1" route="ew" depart="271.3214041284855" />
<vehicle id="type1_200" type="type1" route="sn" depart="271.84358866129475" />
<vehicle id="type1_201" type="type1" route="nw" depart="272.2342849375139" />
<vehicle id="type1_202" type="type1" route="nw" depart="273.7943305253526" />
<vehicle id="type1_203" type="type1" route="en" depart="273.8925088901435" />
<vehicle id="type1_204" type="type1" route="en" depart="274.8352743103044" />
<vehicle id="type1_205" type="type1" route="sw" depart="276.96567267233496" />
<vehicle id="type1_206" type="type1" route="se" depart="277.20543341814" />
<vehicle id="type1_207" type="type1" route="ne" depart="277.88343945742855" />
<vehicle id="type1_208" type="type1" route="ns" depart="279.0441740245169" />
<vehicle id="type1_209" type="type1" route="ne" depart="280.47613178887457" />
<vehicle id="type1_210" type="type1" route="nw" depart="280.89354282979815" />
<vehicle id="type1_211" type="type1" route="se" depart="281.0148732386898" />
<vehicle id="type1_212" type="type1" route="we" depart="282.13501109430615" />
<vehicle id="type1_213" type="type1" route="we" depart="286.1124399630725" />
<vehicle id="type1_214" type="type1" route="se" depart="286.8626827060875" />
<vehicle id="type1_215" type="type1" route="sw" depart="287.6180274767026" />
<vehicle id="type1_216" type="type1" route="ws" depart="287.94930125761925" />
<vehicle id="type1_217" type="type1" route="sn" depart="293.25447689141816" />
<vehicle id="type1_218" type="type1" route="nw" depart="293.5211188770545" />
<vehicle id="type1_219" type="type1" route="we" depart="296.54559641173364" />
<vehicle id="type1_220" type="type1" route="ws" depart="298.3034239276175" />
<vehicle id="type1_221" type="type1" route="we" depart="298.88992711799136" />
<vehicle id="type1_222" type="type1" route="es" depart="304.88974178137585" />
<vehicle id="type1_223" type="type1" route="ns" depart="307.96242683213484" />
<vehicle id="type1_224" type="type1" route="nw" depart="308.16576937020426" />
<vehicle id="type1_225" type="type1" route="sw" depart="308.39366178111817" />
<vehicle id="type1_226" type="type1" route="ns" depart="308.7731893015909" />
<vehicle id="type1_227" type="type1" route="es" depart="313.12694561876236" />
<vehicle id="type1_228" type="type1" route="ew" depart="313.6581200116641" />
<vehicle id="type1_229" type="type1" route="wn" depart="314.31067870061725" />
<vehicle id="type1_230" type="type1" route="sw" depart="314.8779172173282" />
<vehicle id="type1_231" type="type1" route="sw" depart="316.90815712128057" />
<vehicle id="type1_232" type="type1" route="ne" depart="317.07349370294014" />
<vehicle id="type1_233" type="type1" route="wn" depart="317.29049449348753" />
<vehicle id="type1_234" type="type1" route="en" depart="321.10277478668024" />
<vehicle id="type1_235" type="type1" route="en" depart="326.0504660203359" />
<vehicle id="type1_236" type="type1" route="ws" depart="326.13468367406745" />
<vehicle id="type1_237" type="type1" route="nw" depart="326.3000670786197" />
<vehicle id="type1_238" type="type1" route="ew" depart="328.747521474043" />
<vehicle id="type1_239" type="type1" route="ws" depart="328.97564195111033" />
<vehicle id="type1_240" type="type1" route="es" depart="329.1289188225786" />
<vehicle id="type1_241" type="type1" route="sn" depart="330.18008521059767" />
<vehicle id="type1_242" type="type1" route="we" depart="333.2504000485207" />
<vehicle id="type1_243" type="type1" route="se" depart="336.39229950596825" />
<vehicle id="type1_244" type="type1" route="sn" depart="337.0660779363738" />
<vehicle id="type1_245" type="type1" route="ws" depart="337.5683813215529" />
<vehicle id="type1_246" type="type1" route="nw" depart="341.0586805870486" />
<vehicle id="type1_247" type="type1" route="we" depart="342.3962321836397" />
<vehicle id="type1_248" type="type1" route="ne" depart="342.8952945898803" />
<vehicle id="type1_249" type="type1" route="se" depart="343.43395569032884" />
<vehicle id="type1_250" type="type1" route="ws" depart="343.84246175907174" />
<vehicle id="type1_251" type="type1" route="en" depart="345.43289040124404" />
<vehicle id="type1_252" type="type1" route="ew" depart="345.9367556028029" />
<vehicle id="type1_253" type="type1" route="wn" depart="346.6911488745901" />
<vehicle id="type1_254" type="type1" route="sw" depart="348.20413884875245" />
<vehicle id="type1_255" type="type1" route="we" depart="348.7593184279475" />
<vehicle id="type1_256" type="type1" route="ws" depart="351.3843625544566" />
<vehicle id="type1_257" type="type1" route="nw" depart="352.2077402542759" />
<vehicle id="type1_258" type="type1" route="ne" depart="352.63679701753034" />
<vehicle id="type1_259" type="type1" route="sw" depart="352.6868579050987" />
<vehicle id="type1_260" type="type1" route="se" depart="354.1467772662127" />
<vehicle id="type1_261" type="type1" route="ns" depart="354.3422689023678" />
<vehicle id="type1_262" type="type1" route="ws" depart="354.4269374732564" />
<vehicle id="type1_263" type="type1" route="ne" depart="354.9649741076018" />
<vehicle id="type1_264" type="type1" route="ew" depart="357.19231813103784" />
<vehicle id="type1_265" type="type1" route="we" depart="359.0237138770141" />
<vehicle id="type1_266" type="type1" route="wn" depart="361.3439865867696" />
<vehicle id="type1_267" type="type1" route="ws" depart="361.58352058680913" />
<vehicle id="type1_268" type="type1" route="ns" depart="361.64370003049675" />
<vehicle id="type1_269" type="type1" route="ew" depart="363.66587461184275" />
<vehicle id="type1_270" type="type1" route="se" depart="363.7777452150436" />
<vehicle id="type1_271" type="type1" route="ws" depart="365.75602907191046" />
<vehicle id="type1_272" type="type1" route="we" depart="369.70310306093114" />
<vehicle id="type1_273" type="type1" route="ws" depart="370.9333141020644" />
<vehicle id="type1_274" type="type1" route="we" depart="371.5147411168086" />
<vehicle id="type1_275" type="type1" route="en" depart="373.1890056810248" />
<vehicle id="type1_276" type="type1" route="se" depart="373.4023995004738" />
<vehicle id="type1_277" type="type1" route="sw" depart="376.2965043907404" />
<vehicle id="type1_278" type="type1" route="we" depart="376.7105203363692" />
<vehicle id="type1_279" type="type1" route="we" depart="377.83296853838164" />
<vehicle id="type1_280" type="type1" route="en" depart="378.3083293079799" />
<vehicle id="type1_281" type="type1" route="sw" depart="382.47183318289296" />
<vehicle id="type1_282" type="type1" route="nw" depart="385.9030994245593" />
<vehicle id="type1_283" type="type1" route="wn" depart="386.3922796183525" />
<vehicle id="type1_284" type="type1" route="ns" depart="387.849808226416" />
<vehicle id="type1_285" type="type1" route="sn" depart="389.1317793139249" />
<vehicle id="type1_286" type="type1" route="en" depart="389.4818257340822" />
<vehicle id="type1_287" type="type1" route="sn" depart="390.5619613666852" />
<vehicle id="type1_288" type="type1" route="nw" depart="392.1259010777436" />
<vehicle id="type1_289" type="type1" route="we" depart="392.4167136278752" />
<vehicle id="type1_290" type="type1" route="ew" depart="393.39526791320407" />
<vehicle id="type1_291" type="type1" route="es" depart="397.62921511623387" />
<vehicle id="type1_292" type="type1" route="sn" depart="397.9005732819412" />
<vehicle id="type1_293" type="type1" route="ew" depart="399.3922479578253" />
<vehicle id="type1_294" type="type1" route="we" depart="405.0137744076283" />
<vehicle id="type1_295" type="type1" route="ws" depart="406.74109390838964" />
<vehicle id="type1_296" type="type1" route="ne" depart="408.7464617423436" />
<vehicle id="type1_297" type="type1" route="es" depart="409.6485812365756" />
<vehicle id="type1_298" type="type1" route="ns" depart="412.6796454149169" />
<vehicle id="type1_299" type="type1" route="se" depart="418.62300510147884" />
<vehicle id="type1_300" type="type1" route="ns" depart="419.56242642645066" />
</routes>