<routes>
            <vType id="type1" accel="0.8" decel="4.5" sigma="0.5" length="5" maxSpeed="70"/>
            <vType id="rescue" vClass="emergency" speedFactor="1.5" guiShape="emergency">
                <param key="has.bluelight.device" value="true"/>
            </vType>
            <route id="ne" edges="ni eo"/>
            <route id="ns" edges="ni so"/>
            <route id="nw" edges="ni wo"/>
            <route id="en" edges="ei no"/>
            <route id="es" edges="ei so"/>
            <route id="ew" edges="ei wo"/>
            <route id="sn" edges="si no"/>
            <route id="se" edges="si eo"/>
            <route id="sw" edges="si wo"/>
            <route id="wn" edges="wi no"/>
            <route id="we" edges="wi eo"/>
            <route id="ws" edges="wi so"/>
        <vehicle id="type1_1" type="type1" route="wn" depart="3.3541002622155878" />
<vehicle id="type1_2" type="type1" route="sn" depart="6.23871912452258" />
<vehicle id="type1_3" type="type1" route="en" depart="6.756322180857501" />
<vehicle id="type1_4" type="type1" route="sn" depart="10.907566106993706" />
<vehicle id="type1_5" type="type1" route="we" depart="12.43663691291136" />
<vehicle id="type1_6" type="type1" route="ne" depart="13.708200007023713" />
<vehicle id="type1_7" type="type1" route="ew" depart="14.269788915350519" />
<vehicle id="emv_1" type="rescue" route="ws" depart="16.286607659067034" />
<vehicle id="type1_8" type="type1" route="ne" depart="17.110840420774416" />
<vehicle id="type1_9" type="type1" route="nw" depart="18.505203172034147" />
<vehicle id="type1_10" type="type1" route="se" depart="19.458442223087413" />
<vehicle id="type1_11" type="type1" route="we" depart="23.346543095262692" />
<vehicle id="type1_12" type="type1" route="nw" depart="24.66369388031919" />
<vehicle id="type1_13" type="type1" route="we" depart="31.008622237069996" />
<vehicle id="type1_14" type="type1" route="sn" depart="31.3881772794546" />
<vehicle id="type1_15" type="type1" route="en" depart="33.73063681992666" />
<vehicle id="type1_16" type="type1" route="wn" depart="34.34022313586209" />
<vehicle id="type1_17" type="type1" route="wn" depart="36.749550546130095" />
<vehicle id="type1_18" type="type1" route="nw" depart="38.12257369784072" />
<vehicle id="type1_19" type="type1" route="es" depart="38.49743970032371" />
<vehicle id="type1_20" type="type1" route="en" depart="39.04610637915993" />
<vehicle id="type1_21" type="type1" route="sw" depart="39.955575034038205" />
<vehicle id="type1_22" type="type1" route="sn" depart="40.88545928416951" />
<vehicle id="type1_23" type="type1" route="wn" depart="42.95243723412479" />
<vehicle id="type1_24" type="type1" route="sw" depart="43.536224092874505" />
<vehicle id="type1_25" type="type1" route="en" depart="45.188284093210704" />
<vehicle id="type1_26" type="type1" route="en" depart="45.458829670405876" />
<vehicle id="type1_27" type="type1" route="sn" depart="46.16750339185069" />
<vehicle id="type1_28" type="type1" route="wn" depart="46.613532842132635" />
<vehicle id="type1_29" type="type1" route="sw" depart="49.472505121224664" />
<vehicle id="type1_30" type="type1" route="ns" depart="50.64268852826335" />
<vehicle id="type1_31" type="type1" route="wn" depart="51.99226511517323" />
<vehicle id="type1_32" type="type1" route="wn" depart="53.06941667411705" />
<vehicle id="type1_33" type="type1" route="ns" depart="58.760150408428494" />
<vehicle id="type1_34" type="type1" route="en" depart="60.22025221187724" />
<vehicle id="emv_2" type="rescue" route="se" depart="61.09443928607384" />
<vehicle id="type1_35" type="type1" route="sn" depart="62.32347277157643" />
<vehicle id="type1_36" type="type1" route="es" depart="63.53239640240097" />
<vehicle id="type1_37" type="type1" route="sw" depart="64.29035509319502" />
<vehicle id="type1_38" type="type1" route="ns" depart="66.3358039045961" />
<vehicle id="type1_39" type="type1" route="es" depart="69.54763447949688" />
<vehicle id="type1_40" type="type1" route="we" depart="71.86928391728499" />
<vehicle id="type1_41" type="type1" route="nw" depart="71.97171489845661" />
<vehicle id="type1_42" type="type1" route="sn" depart="73.26317604813401" />
<vehicle id="type1_43" type="type1" route="ew" depart="74.88255804125927" />
<vehicle id="type1_44" type="type1" route="ne" depart="75.05608197967182" />
<vehicle id="type1_45" type="type1" route="ne" depart="76.72276595719387" />
<vehicle id="type1_46" type="type1" route="ew" depart="77.43810852313229" />
<vehicle id="type1_47" type="type1" route="es" depart="78.22289628180685" />
<vehicle id="type1_48" type="type1" route="wn" depart="83.95138749694001" />
<vehicle id="type1_49" type="type1" route="sn" depart="85.43722875674327" />
<vehicle id="type1_50" type="type1" route="en" depart="86.75650880736131" />
<vehicle id="type1_51" type="type1" route="es" depart="87.0092051415678" />
<vehicle id="type1_52" type="type1" route="wn" depart="89.75812252448641" />
<vehicle id="type1_53" type="type1" route="nw" depart="91.07542328125788" />
<vehicle id="type1_54" type="type1" route="sn" depart="91.30923433854826" />
<vehicle id="type1_55" type="type1" route="nw" depart="91.52806166458345" />
<vehicle id="type1_56" type="type1" route="wn" depart="95.75710704679486" />
<vehicle id="type1_57" type="type1" route="se" depart="98.10714366979755" />
<vehicle id="type1_58" type="type1" route="nw" depart="99.81338024359769" />
<vehicle id="type1_59" type="type1" route="ns" depart="100.25697397901146" />
<vehicle id="type1_60" type="type1" route="se" depart="100.52883620472308" />
<vehicle id="type1_61" type="type1" route="ne" depart="105.2494735578187" />
<vehicle id="type1_62" type="type1" route="ns" depart="105.96021173111598" />
<vehicle id="type1_63" type="type1" route="ns" depart="106.43352690377964" />
<vehicle id="type1_64" type="type1" route="wn" depart="107.87622646544236" />
<vehicle id="type1_65" type="type1" route="sn" depart="108.61839609664192" />
<vehicle id="type1_66" type="type1" route="se" depart="108.96321779074606" />
<vehicle id="type1_67" type="type1" route="sn" depart="109.57111264032069" />
<vehicle id="type1_68" type="type1" route="es" depart="109.66604929511213" />
<vehicle id="type1_69" type="type1" route="ws" depart="111.26873664282432" />
<vehicle id="type1_70" type="type1" route="ew" depart="112.0696133141489" />
<vehicle id="type1_71" type="type1" route="sw" depart="119.7387021581885" />
<vehicle id="type1_72" type="type1" route="en" depart="121.1284362172052" />
<vehicle id="type1_73" type="type1" route="ne" depart="121.78107402728138" />
<vehicle id="type1_74" type="type1" route="we" depart="123.86501718536672" />
<vehicle id="type1_75" type="type1" route="wn" depart="124.15828314987053" />
<vehicle id="type1_76" type="type1" route="sn" depart="124.53135043828873" />
<vehicle id="type1_77" type="type1" route="ns" depart="125.27836091867205" />
<vehicle id="type1_78" type="type1" route="se" depart="129.07635266253328" />
<vehicle id="type1_79" type="type1" route="en" depart="129.4184858608388" />
<vehicle id="type1_80" type="type1" route="ns" depart="130.79644199821675" />
<vehicle id="type1_81" type="type1" route="sw" depart="131.21574577421174" />
<vehicle id="emv_3" type="rescue" route="ns" depart="131.73315878649575" />
<vehicle id="type1_82" type="type1" route="es" depart="131.82479455896055" />
<vehicle id="type1_83" type="type1" route="sn" depart="132.03564455514677" />
<vehicle id="type1_84" type="type1" route="wn" depart="134.86150824208127" />
<vehicle id="emv_4" type="rescue" route="en" depart="136.77322570890905" />
<vehicle id="type1_85" type="type1" route="nw" depart="137.41297861841102" />
<vehicle id="type1_86" type="type1" route="en" depart="137.9573036520334" />
<vehicle id="type1_87" type="type1" route="ns" depart="139.00603215599534" />
<vehicle id="type1_88" type="type1" route="es" depart="140.17277343255108" />
<vehicle id="type1_89" type="type1" route="sn" depart="142.72503403512636" />
<vehicle id="type1_90" type="type1" route="ws" depart="144.45535817726602" />
<vehicle id="type1_91" type="type1" route="ws" depart="144.9625403074919" />
<vehicle id="type1_92" type="type1" route="we" depart="145.3897297198634" />
<vehicle id="type1_93" type="type1" route="en" depart="150.0423867549684" />
<vehicle id="type1_94" type="type1" route="ew" depart="152.29158585769508" />
<vehicle id="type1_95" type="type1" route="we" depart="152.61498253216732" />
<vehicle id="type1_96" type="type1" route="se" depart="153.4110110088807" />
<vehicle id="type1_97" type="type1" route="se" depart="153.6954731900503" />
<vehicle id="type1_98" type="type1" route="we" depart="154.02543999403815" />
<vehicle id="type1_99" type="type1" route="se" depart="155.72943507857653" />
<vehicle id="type1_100" type="type1" route="ne" depart="155.9972251720564" />
<vehicle id="type1_101" type="type1" route="ew" depart="156.3610255537257" />
<vehicle id="type1_102" type="type1" route="en" depart="157.97405077187463" />
<vehicle id="type1_103" type="type1" route="es" depart="158.70076140407153" />
<vehicle id="type1_104" type="type1" route="es" depart="160.02779735628584" />
<vehicle id="type1_105" type="type1" route="sw" depart="160.3176153563646" />
<vehicle id="type1_106" type="type1" route="se" depart="160.65366858224988" />
<vehicle id="type1_107" type="type1" route="ew" depart="160.79659906697094" />
<vehicle id="type1_108" type="type1" route="es" depart="160.94267932217215" />
<vehicle id="type1_109" type="type1" route="sn" depart="165.76042264344403" />
<vehicle id="type1_110" type="type1" route="wn" depart="167.3948753504425" />
<vehicle id="type1_111" type="type1" route="ws" depart="168.71685781147093" />
<vehicle id="type1_112" type="type1" route="ew" depart="169.04132365537947" />
<vehicle id="type1_113" type="type1" route="se" depart="169.59627416184003" />
<vehicle id="type1_114" type="type1" route="nw" depart="170.60124810058286" />
<vehicle id="type1_115" type="type1" route="se" depart="170.69402701463036" />
<vehicle id="type1_116" type="type1" route="ns" depart="173.2317419696871" />
<vehicle id="type1_117" type="type1" route="ws" depart="174.8701282311372" />
<vehicle id="type1_118" type="type1" route="ne" depart="175.88080442127065" />
<vehicle id="type1_119" type="type1" route="we" depart="176.03770562653378" />
<vehicle id="type1_120" type="type1" route="ws" depart="183.93870737800304" />
<vehicle id="type1_121" type="type1" route="ew" depart="186.076108242454" />
<vehicle id="type1_122" type="type1" route="nw" depart="186.41657126742743" />
<vehicle id="type1_123" type="type1" route="es" depart="186.43982128222916" />
<vehicle id="type1_124" type="type1" route="ne" depart="190.03912173255924" />
<vehicle id="type1_125" type="type1" route="ws" depart="191.79880904751533" />
<vehicle id="type1_126" type="type1" route="se" depart="192.57564368026274" />
<vehicle id="emv_5" type="rescue" route="wn" depart="193.0953761462625" />
<vehicle id="type1_127" type="type1" route="wn" depart="197.5998593095575" />
<vehicle id="type1_128" type="type1" route="en" depart="197.64718589583129" />
<vehicle id="type1_129" type="type1" route="wn" depart="200.13651309863235" />
<vehicle id="type1_130" type="type1" route="wn" depart="200.67537181602958" />
<vehicle id="type1_131" type="type1" route="ew" depart="201.1633884942471" />
<vehicle id="type1_132" type="type1" route="we" depart="202.70937749926267" />
<vehicle id="type1_133" type="type1" route="ne" depart="202.9323321678139" />
<vehicle id="type1_134" type="type1" route="ew" depart="203.37220019976309" />
<vehicle id="type1_135" type="type1" route="se" depart="204.11559635183886" />
<vehicle id="type1_136" type="type1" route="we" depart="205.54314745275633" />
<vehicle id="type1_137" type="type1" route="nw" depart="207.21945421998126" />
<vehicle id="emv_6" type="rescue" route="ew" depart="207.40503907771148" />
<vehicle id="type1_138" type="type1" route="ne" depart="210.65316070445715" />
<vehicle id="type1_139" type="type1" route="sw" depart="211.3587345366993" />
<vehicle id="type1_140" type="type1" route="ew" depart="212.29998388282166" />
<vehicle id="type1_141" type="type1" route="sn" depart="214.7832153303524" />
<vehicle id="type1_142" type="type1" route="ew" depart="215.2058233373107" />
<vehicle id="type1_143" type="type1" route="sn" depart="215.3930203336658" />
<vehicle id="type1_144" type="type1" route="wn" depart="222.91365750821186" />
<vehicle id="emv_7" type="rescue" route="sn" depart="223.09197472382314" />
<vehicle id="type1_145" type="type1" route="nw" depart="226.58029212991013" />
<vehicle id="type1_146" type="type1" route="se" depart="227.81994798235598" />
<vehicle id="type1_147" type="type1" route="ew" depart="229.19621401175732" />
<vehicle id="type1_148" type="type1" route="sw" depart="229.49907637286475" />
<vehicle id="type1_149" type="type1" route="en" depart="232.7281080621709" />
<vehicle id="type1_150" type="type1" route="we" depart="232.80578566624078" />
<vehicle id="type1_151" type="type1" route="nw" depart="236.38664508193116" />
<vehicle id="type1_152" type="type1" route="en" depart="238.91445083246626" />
<vehicle id="type1_153" type="type1" route="ew" depart="244.94149379994238" />
<vehicle id="type1_154" type="type1" route="ne" depart="247.0676945691484" />
<vehicle id="type1_155" type="type1" route="nw" depart="247.1008179560569" />
<vehicle id="type1_156" type="type1" route="en" depart="247.37653903216915" />
<vehicle id="type1_157" type="type1" route="nw" depart="248.15600343916532" />
<vehicle id="type1_158" type="type1" route="wn" depart="248.33259409435902" />
<vehicle id="type1_159" type="type1" route="nw" depart="248.80978243046803" />
<vehicle id="type1_160" type="type1" route="ne" depart="250.57896646842738" />
<vehicle id="type1_161" type="type1" route="se" depart="251.1853124696674" />
<vehicle id="type1_162" type="type1" route="en" depart="252.87310402775736" />
<vehicle id="type1_163" type="type1" route="nw" depart="256.3576704835361" />
<vehicle id="type1_164" type="type1" route="sn" depart="258.22822551892574" />
<vehicle id="type1_165" type="type1" route="ew" depart="258.2707137886787" />
<vehicle id="type1_166" type="type1" route="nw" depart="258.4099953362426" />
<vehicle id="type1_167" type="type1" route="nw" depart="259.99387339399857" />
<vehicle id="type1_168" type="type1" route="se" depart="260.8235392475333" />
<vehicle id="type1_169" type="type1" route="we" depart="264.76752760023953" />
<vehicle id="type1_170" type="type1" route="se" depart="265.4941848394566" />
<vehicle id="type1_171" type="type1" route="se" depart="265.62893139057746" />
<vehicle id="type1_172" type="type1" route="ns" depart="267.64148076465455" />
<vehicle id="type1_173" type="type1" route="se" depart="268.14250848254943" />
<vehicle id="type1_174" type="type1" route="es" depart="268.32361244582506" />
<vehicle id="type1_175" type="type1" route="sw" depart="268.58422410716105" />
<vehicle id="type1_176" type="type1" route="ns" depart="270.0927644086889" />
<vehicle id="type1_177" type="type1" route="sw" depart="272.98953019513135" />
<vehicle id="type1_178" type="type1" route="wn" depart="275.8838693306115" />
<vehicle id="type1_179" type="type1" route="es" depart="278.2119485083039" />
<vehicle id="type1_180" type="type1" route="nw" depart="278.32049592038624" />
<vehicle id="type1_181" type="type1" route="se" depart="278.8466591206591" />
<vehicle id="type1_182" type="type1" route="ns" depart="280.5061646198917" />
<vehicle id="type1_183" type="type1" route="sn" depart="280.7907272374179" />
<vehicle id="type1_184" type="type1" route="se" depart="281.03003082993325" />
<vehicle id="type1_185" type="type1" route="es" depart="281.7740401527788" />
<vehicle id="type1_186" type="type1" route="en" depart="282.09765745492194" />
<vehicle id="type1_187" type="type1" route="sw" depart="282.18007948114507" />
<vehicle id="type1_188" type="type1" route="ns" depart="282.8674032716963" />
<vehicle id="type1_189" type="type1" route="ne" depart="283.0372714564432" />
<vehicle id="type1_190" type="type1" route="se" depart="283.5456808023692" />
<vehicle id="type1_191" type="type1" route="nw" depart="284.66576326886775" />
<vehicle id="type1_192" type="type1" route="ew" depart="285.26277242255543" />
<vehicle id="emv_8" type="rescue" route="sn" depart="288.1709662673134" />
<vehicle id="type1_193" type="type1" route="nw" depart="291.8516013982051" />
<vehicle id="type1_194" type="type1" route="nw" depart="296.52747871686853" />
<vehicle id="type1_195" type="type1" route="en" depart="297.1457854732827" />
<vehicle id="type1_196" type="type1" route="en" depart="297.8956331715044" />
<vehicle id="type1_197" type="type1" route="sw" depart="298.6877114305933" />
<vehicle id="type1_198" type="type1" route="se" depart="299.11168241229785" />
<vehicle id="type1_199" type="type1" route="ne" depart="302.15537428316287" />
<vehicle id="type1_200" type="type1" route="ns" depart="302.4667646172461" />
<vehicle id="type1_201" type="type1" route="ne" depart="304.32367677988503" />
<vehicle id="type1_202" type="type1" route="nw" depart="304.45050604285643" />
<vehicle id="type1_203" type="type1" route="se" depart="306.427968841301" />
<vehicle id="type1_204" type="type1" route="we" depart="307.0204311538479" />
<vehicle id="type1_205" type="type1" route="we" depart="307.7691290911629" />
<vehicle id="type1_206" type="type1" route="se" depart="309.4380850756824" />
<vehicle id="type1_207" type="type1" route="sw" depart="309.68703561001763" />
<vehicle id="type1_208" type="type1" route="ws" depart="310.1191180455913" />
<vehicle id="type1_209" type="type1" route="sn" depart="312.2335235784489" />
<vehicle id="type1_210" type="type1" route="nw" depart="313.4341697687347" />
<vehicle id="type1_211" type="type1" route="we" depart="314.087902173515" />
<vehicle id="type1_212" type="type1" route="ws" depart="315.01871366435165" />
<vehicle id="type1_213" type="type1" route="we" depart="315.46472749020523" />
<vehicle id="type1_214" type="type1" route="es" depart="316.1517429845025" />
<vehicle id="type1_215" type="type1" route="ns" depart="316.35527587770156" />
<vehicle id="type1_216" type="type1" route="nw" depart="316.37820644647695" />
<vehicle id="type1_217" type="type1" route="sw" depart="316.53909312914" />
<vehicle id="type1_218" type="type1" route="ns" depart="316.5407947595295" />
<vehicle id="type1_219" type="type1" route="es" depart="318.3301566325885" />
<vehicle id="type1_220" type="type1" route="ew" depart="319.48664835688146" />
<vehicle id="type1_221" type="type1" route="wn" depart="319.52756208524295" />
<vehicle id="type1_222" type="type1" route="sw" depart="319.53573826226386" />
<vehicle id="type1_223" type="type1" route="sw" depart="320.66397972209944" />
<vehicle id="type1_224" type="type1" route="ne" depart="321.857463991959" />
<vehicle id="type1_225" type="type1" route="wn" depart="322.8133935688359" />
<vehicle id="type1_226" type="type1" route="en" depart="324.9559613544825" />
<vehicle id="type1_227" type="type1" route="en" depart="328.3449882353431" />
<vehicle id="type1_228" type="type1" route="ws" depart="329.1927826053989" />
<vehicle id="type1_229" type="type1" route="nw" depart="330.1393735901276" />
<vehicle id="type1_230" type="type1" route="ew" depart="334.53526819473313" />
<vehicle id="type1_231" type="type1" route="ws" depart="335.20145205041" />
<vehicle id="type1_232" type="type1" route="es" depart="338.8272687360499" />
<vehicle id="type1_233" type="type1" route="sn" depart="341.5011583781201" />
<vehicle id="type1_234" type="type1" route="we" depart="341.9142387154063" />
<vehicle id="type1_235" type="type1" route="se" depart="343.225361493447" />
<vehicle id="type1_236" type="type1" route="sn" depart="343.5648304128284" />
<vehicle id="type1_237" type="type1" route="ws" depart="345.72333772825755" />
<vehicle id="type1_238" type="type1" route="nw" depart="348.3671477303136" />
<vehicle id="type1_239" type="type1" route="we" depart="349.1308755313553" />
<vehicle id="type1_240" type="type1" route="ne" depart="351.8733759461621" />
<vehicle id="type1_241" type="type1" route="se" depart="353.1061038652239" />
<vehicle id="type1_242" type="type1" route="ws" depart="353.2597844220936" />
<vehicle id="type1_243" type="type1" route="en" depart="354.32760732340165" />
<vehicle id="type1_244" type="type1" route="ew" depart="357.24110150920774" />
<vehicle id="type1_245" type="type1" route="wn" depart="359.9926591328313" />
<vehicle id="type1_246" type="type1" route="sw" depart="360.8714413191116" />
<vehicle id="type1_247" type="type1" route="we" depart="361.08277904831203" />
<vehicle id="type1_248" type="type1" route="ws" depart="361.3622627748577" />
<vehicle id="type1_249" type="type1" route="nw" depart="362.45868495738733" />
<vehicle id="type1_250" type="type1" route="ne" depart="365.1972061910974" />
<vehicle id="type1_251" type="type1" route="sw" depart="366.10917330249436" />
<vehicle id="type1_252" type="type1" route="se" depart="368.3192609410922" />
<vehicle id="type1_253" type="type1" route="ns" depart="371.10067423987374" />
<vehicle id="type1_254" type="type1" route="ws" depart="376.18516650461726" />
<vehicle id="emv_9" type="rescue" route="ne" depart="384.06724276364645" />
<vehicle id="type1_255" type="type1" route="ew" depart="384.6157519600728" />
<vehicle id="type1_256" type="type1" route="we" depart="385.22293863953996" />
<vehicle id="type1_257" type="type1" route="wn" depart="385.3065803634408" />
<vehicle id="type1_258" type="type1" route="ws" depart="386.63062839641935" />
<vehicle id="type1_259" type="type1" route="ns" depart="386.84171783154005" />
<vehicle id="type1_260" type="type1" route="ew" depart="388.81429747284625" />
<vehicle id="type1_261" type="type1" route="se" depart="389.83155455300295" />
<vehicle id="type1_262" type="type1" route="ws" depart="390.60022748449956" />
<vehicle id="type1_263" type="type1" route="we" depart="391.29021084724735" />
<vehicle id="type1_264" type="type1" route="ws" depart="392.1121563959157" />
<vehicle id="type1_265" type="type1" route="we" depart="392.802606675678" />
<vehicle id="type1_266" type="type1" route="en" depart="394.4749591559727" />
<vehicle id="type1_267" type="type1" route="se" depart="394.518281072533" />
<vehicle id="type1_268" type="type1" route="sw" depart="398.2799582852849" />
<vehicle id="type1_269" type="type1" route="we" depart="401.1536620945809" />
<vehicle id="type1_270" type="type1" route="we" depart="401.2288407072588" />
<vehicle id="emv_10" type="rescue" route="en" depart="402.99928567202096" />
<vehicle id="type1_271" type="type1" route="sw" depart="403.381359723573" />
<vehicle id="type1_272" type="type1" route="nw" depart="404.60427687826444" />
<vehicle id="type1_273" type="type1" route="wn" depart="408.17334017626325" />
<vehicle id="type1_274" type="type1" route="ns" depart="409.4505083756122" />
<vehicle id="type1_275" type="type1" route="sn" depart="411.80935276551025" />
<vehicle id="type1_276" type="type1" route="en" depart="412.1535206328525" />
<vehicle id="type1_277" type="type1" route="sn" depart="418.6597328723184" />
<vehicle id="type1_278" type="type1" route="nw" depart="419.21079567842617" />
<vehicle id="type1_279" type="type1" route="we" depart="419.35793445422115" />
<vehicle id="type1_280" type="type1" route="ew" depart="419.6022353120015" />
<vehicle id="type1_281" type="type1" route="es" depart="421.1112962754227" />
<vehicle id="type1_282" type="type1" route="sn" depart="424.11359861161475" />
<vehicle id="type1_283" type="type1" route="ew" depart="427.53915737759087" />
<vehicle id="type1_284" type="type1" route="we" depart="428.79537613722624" />
<vehicle id="type1_285" type="type1" route="ws" depart="436.02679747357536" />
<vehicle id="type1_286" type="type1" route="ne" depart="439.7426585193916" />
<vehicle id="type1_287" type="type1" route="es" depart="439.9260783772936" />
<vehicle id="type1_288" type="type1" route="ns" depart="441.91077435346693" />
<vehicle id="type1_289" type="type1" route="se" depart="443.288081785548" />
<vehicle id="type1_290" type="type1" route="ns" depart="444.5756328109026" />
</routes>