<routes>
            <vType id="type1" accel="0.8" decel="4.5" sigma="0.5" length="5" maxSpeed="70"/>
            <vType id="rescue" vClass="emergency" speedFactor="1.5" guiShape="emergency">
                <param key="has.bluelight.device" value="true"/>
            </vType>
            <route id="ne" edges="ni eo"/>
            <route id="ns" edges="ni so"/>
            <route id="nw" edges="ni wo"/>
            <route id="en" edges="ei no"/>
            <route id="es" edges="ei so"/>
            <route id="ew" edges="ei wo"/>
            <route id="sn" edges="si no"/>
            <route id="se" edges="si eo"/>
            <route id="sw" edges="si wo"/>
            <route id="wn" edges="wi no"/>
            <route id="we" edges="wi eo"/>
            <route id="ws" edges="wi so"/>
        
            <personFlow id="p_ns" begin="0" end="400" period="50">
                <walk route="ns"/>
            </personFlow>
                         
            <personFlow id="p_we" begin="0" end="400" period="50">
                <walk route="we"/>
            </personFlow>
                         
            <personFlow id="p_sn" begin="0" end="400" period="50">
                <walk route="sn"/>
            </personFlow>
                         
            <personFlow id="p_ew" begin="0" end="400" period="50">
                <walk route="ew"/>
            </personFlow>
                         <vehicle id="type1_1" type="type1" route="en" depart="4.343424361299557" />
<vehicle id="type1_2" type="type1" route="nw" depart="4.398552717096811" />
<vehicle id="type1_3" type="type1" route="wn" depart="10.62390081015356" />
<vehicle id="type1_4" type="type1" route="wn" depart="11.5373526789785" />
<vehicle id="type1_5" type="type1" route="ne" depart="11.594900629399055" />
<vehicle id="type1_6" type="type1" route="sn" depart="15.480662119579538" />
<vehicle id="type1_7" type="type1" route="en" depart="15.559312912205481" />
<vehicle id="type1_8" type="type1" route="ws" depart="16.052911209411583" />
<vehicle id="type1_9" type="type1" route="sw" depart="19.80657116479361" />
<vehicle id="type1_10" type="type1" route="we" depart="23.564517355864062" />
<vehicle id="type1_11" type="type1" route="en" depart="26.668776702102782" />
<vehicle id="type1_12" type="type1" route="sw" depart="28.680719114865752" />
<vehicle id="type1_13" type="type1" route="ne" depart="30.402960056878996" />
<vehicle id="type1_14" type="type1" route="ns" depart="33.83304364984857" />
<vehicle id="type1_15" type="type1" route="wn" depart="34.2020068041614" />
<vehicle id="type1_16" type="type1" route="ne" depart="38.09550034422303" />
<vehicle id="type1_17" type="type1" route="es" depart="42.229095806439645" />
<vehicle id="type1_18" type="type1" route="ws" depart="42.61183386845362" />
<vehicle id="type1_19" type="type1" route="se" depart="42.8116168990969" />
<vehicle id="type1_20" type="type1" route="se" depart="47.01087171253861" />
<vehicle id="type1_21" type="type1" route="wn" depart="47.51980690479402" />
<vehicle id="type1_22" type="type1" route="nw" depart="50.21425210287504" />
<vehicle id="type1_23" type="type1" route="ns" depart="52.69034465300134" />
<vehicle id="type1_24" type="type1" route="sn" depart="54.52150825004979" />
<vehicle id="type1_25" type="type1" route="we" depart="54.973374674159686" />
<vehicle id="type1_26" type="type1" route="we" depart="56.630550767502044" />
<vehicle id="type1_27" type="type1" route="se" depart="61.03329189569626" />
<vehicle id="type1_28" type="type1" route="se" depart="70.43908418596484" />
<vehicle id="type1_29" type="type1" route="sw" depart="71.85383484386095" />
<vehicle id="type1_30" type="type1" route="wn" depart="74.21873801952232" />
<vehicle id="type1_31" type="type1" route="ew" depart="75.24553612840968" />
<vehicle id="type1_32" type="type1" route="ne" depart="76.05370152097721" />
<vehicle id="type1_33" type="type1" route="wn" depart="77.0387040094747" />
<vehicle id="type1_34" type="type1" route="nw" depart="77.3954161061754" />
<vehicle id="type1_35" type="type1" route="ew" depart="80.21631993298755" />
<vehicle id="type1_36" type="type1" route="wn" depart="81.2233079472871" />
<vehicle id="type1_37" type="type1" route="ws" depart="81.48433955824919" />
<vehicle id="type1_38" type="type1" route="we" depart="83.19323247365176" />
<vehicle id="type1_39" type="type1" route="wn" depart="88.35801774196098" />
<vehicle id="type1_40" type="type1" route="ns" depart="90.09922629476722" />
<vehicle id="emv_1" type="rescue" route="we" depart="92.25913226448644" />
<vehicle id="type1_41" type="type1" route="ns" depart="93.46160006184" />
<vehicle id="type1_42" type="type1" route="ns" depart="96.40539050174281" />
<vehicle id="type1_43" type="type1" route="nw" depart="97.11354670967577" />
<vehicle id="type1_44" type="type1" route="se" depart="97.64010541294348" />
<vehicle id="type1_45" type="type1" route="ns" depart="99.21269764782427" />
<vehicle id="type1_46" type="type1" route="wn" depart="100.28192461871666" />
<vehicle id="type1_47" type="type1" route="se" depart="102.10910445622649" />
<vehicle id="type1_48" type="type1" route="ew" depart="106.65822195073639" />
<vehicle id="type1_49" type="type1" route="es" depart="106.81656380308183" />
<vehicle id="type1_50" type="type1" route="ne" depart="107.24962130550952" />
<vehicle id="type1_51" type="type1" route="ns" depart="107.3802774022988" />
<vehicle id="type1_52" type="type1" route="sw" depart="108.20307049181602" />
<vehicle id="type1_53" type="type1" route="en" depart="111.84206173212935" />
<vehicle id="type1_54" type="type1" route="es" depart="113.69530266217895" />
<vehicle id="type1_55" type="type1" route="nw" depart="117.14428691790246" />
<vehicle id="type1_56" type="type1" route="ew" depart="128.1206444242239" />
<vehicle id="type1_57" type="type1" route="nw" depart="129.1445017627194" />
<vehicle id="type1_58" type="type1" route="se" depart="129.42859749268752" />
<vehicle id="type1_59" type="type1" route="sw" depart="130.62061653901753" />
<vehicle id="type1_60" type="type1" route="wn" depart="133.61301483030832" />
<vehicle id="type1_61" type="type1" route="ns" depart="136.54685686067396" />
<vehicle id="type1_62" type="type1" route="sw" depart="138.4871074504114" />
<vehicle id="type1_63" type="type1" route="we" depart="142.17262123710347" />
<vehicle id="type1_64" type="type1" route="en" depart="142.98887144030485" />
<vehicle id="type1_65" type="type1" route="se" depart="150.7987259722749" />
<vehicle id="type1_66" type="type1" route="sw" depart="152.770522662871" />
<vehicle id="type1_67" type="type1" route="ew" depart="152.81503716948492" />
<vehicle id="emv_2" type="rescue" route="se" depart="154.23679204591784" />
<vehicle id="type1_68" type="type1" route="ew" depart="158.14822343695508" />
<vehicle id="type1_69" type="type1" route="wn" depart="158.5834621558149" />
<vehicle id="type1_70" type="type1" route="nw" depart="158.98915563089037" />
<vehicle id="type1_71" type="type1" route="we" depart="159.26825275093591" />
<vehicle id="type1_72" type="type1" route="ew" depart="160.38914270783886" />
<vehicle id="type1_73" type="type1" route="ew" depart="163.04549281001732" />
<vehicle id="type1_74" type="type1" route="es" depart="164.01215262578359" />
<vehicle id="type1_75" type="type1" route="ne" depart="164.25083561166394" />
<vehicle id="type1_76" type="type1" route="we" depart="164.25897330432267" />
<vehicle id="type1_77" type="type1" route="ew" depart="166.18382993457172" />
<vehicle id="type1_78" type="type1" route="sn" depart="167.00460243599898" />
<vehicle id="type1_79" type="type1" route="wn" depart="168.56660251510925" />
<vehicle id="type1_80" type="type1" route="ew" depart="169.8676663015795" />
<vehicle id="type1_81" type="type1" route="ew" depart="172.7644843452263" />
<vehicle id="type1_82" type="type1" route="es" depart="174.19271490841214" />
<vehicle id="type1_83" type="type1" route="se" depart="174.8978900371817" />
<vehicle id="type1_84" type="type1" route="ne" depart="176.33977199385404" />
<vehicle id="type1_85" type="type1" route="we" depart="179.24506320891564" />
<vehicle id="type1_86" type="type1" route="es" depart="180.50720007159623" />
<vehicle id="type1_87" type="type1" route="we" depart="182.1465448431306" />
<vehicle id="type1_88" type="type1" route="en" depart="183.56598919756385" />
<vehicle id="type1_89" type="type1" route="we" depart="185.4722459780964" />
<vehicle id="type1_90" type="type1" route="ws" depart="187.66610890279074" />
<vehicle id="type1_91" type="type1" route="wn" depart="188.24349693446422" />
<vehicle id="type1_92" type="type1" route="ew" depart="189.63696212024618" />
<vehicle id="type1_93" type="type1" route="en" depart="192.256673173361" />
<vehicle id="type1_94" type="type1" route="nw" depart="193.22502511988853" />
<vehicle id="type1_95" type="type1" route="ws" depart="194.0203544662021" />
<vehicle id="type1_96" type="type1" route="wn" depart="196.13432693230243" />
<vehicle id="type1_97" type="type1" route="en" depart="199.61064280182288" />
<vehicle id="type1_98" type="type1" route="ne" depart="200.0047723742021" />
<vehicle id="type1_99" type="type1" route="en" depart="201.0685257793846" />
<vehicle id="type1_100" type="type1" route="wn" depart="201.70892152571602" />
<vehicle id="type1_101" type="type1" route="es" depart="201.9679168718279" />
<vehicle id="type1_102" type="type1" route="we" depart="203.44028568952544" />
<vehicle id="type1_103" type="type1" route="wn" depart="205.1231847550133" />
<vehicle id="type1_104" type="type1" route="nw" depart="205.67832310863764" />
<vehicle id="type1_105" type="type1" route="sw" depart="209.2465980884097" />
<vehicle id="type1_106" type="type1" route="es" depart="209.87124523853393" />
<vehicle id="type1_107" type="type1" route="we" depart="213.75695186933584" />
<vehicle id="type1_108" type="type1" route="se" depart="219.6214119972553" />
<vehicle id="type1_109" type="type1" route="ne" depart="224.00974808996875" />
<vehicle id="type1_110" type="type1" route="nw" depart="226.60557906298507" />
<vehicle id="type1_111" type="type1" route="sn" depart="228.7981497215652" />
<vehicle id="emv_3" type="rescue" route="wn" depart="229.48294220511355" />
<vehicle id="type1_112" type="type1" route="se" depart="232.13543530912645" />
<vehicle id="type1_113" type="type1" route="ws" depart="233.1048793312691" />
<vehicle id="type1_114" type="type1" route="ws" depart="233.75525671850437" />
<vehicle id="type1_115" type="type1" route="we" depart="234.88277032367708" />
<vehicle id="type1_116" type="type1" route="es" depart="238.3089298297502" />
<vehicle id="type1_117" type="type1" route="en" depart="240.47094755336755" />
<vehicle id="type1_118" type="type1" route="wn" depart="241.61903833813835" />
<vehicle id="type1_119" type="type1" route="ns" depart="241.88727354216894" />
<vehicle id="type1_120" type="type1" route="ne" depart="248.09473654519482" />
<vehicle id="type1_121" type="type1" route="ws" depart="250.82154109888214" />
<vehicle id="type1_122" type="type1" route="en" depart="252.24518946046163" />
<vehicle id="type1_123" type="type1" route="se" depart="252.71911917082514" />
<vehicle id="type1_124" type="type1" route="ne" depart="253.52188263128468" />
<vehicle id="type1_125" type="type1" route="ns" depart="254.20896777335884" />
<vehicle id="type1_126" type="type1" route="es" depart="254.47511195205126" />
<vehicle id="type1_127" type="type1" route="ne" depart="255.2922519232964" />
<vehicle id="type1_128" type="type1" route="se" depart="256.52497560945244" />
<vehicle id="type1_129" type="type1" route="wn" depart="258.3901748365363" />
<vehicle id="type1_130" type="type1" route="nw" depart="259.6993507128497" />
<vehicle id="type1_131" type="type1" route="sw" depart="260.2790274678482" />
<vehicle id="type1_132" type="type1" route="ne" depart="261.90919811229077" />
<vehicle id="type1_133" type="type1" route="en" depart="262.3681169198878" />
<vehicle id="type1_134" type="type1" route="ns" depart="265.6103917267227" />
<vehicle id="type1_135" type="type1" route="es" depart="266.0268708058892" />
<vehicle id="type1_136" type="type1" route="nw" depart="266.9484526194132" />
<vehicle id="type1_137" type="type1" route="ne" depart="270.8281150658065" />
<vehicle id="type1_138" type="type1" route="wn" depart="271.7381127333482" />
<vehicle id="type1_139" type="type1" route="ne" depart="272.3845669788628" />
<vehicle id="type1_140" type="type1" route="en" depart="276.2546907044012" />
<vehicle id="type1_141" type="type1" route="sw" depart="277.1260375451695" />
<vehicle id="type1_142" type="type1" route="ne" depart="278.7911915552688" />
<vehicle id="type1_143" type="type1" route="ne" depart="285.94838295084656" />
<vehicle id="type1_144" type="type1" route="nw" depart="286.3367471856851" />
<vehicle id="type1_145" type="type1" route="ne" depart="287.62027087357393" />
<vehicle id="type1_146" type="type1" route="ne" depart="287.84748884911164" />
<vehicle id="type1_147" type="type1" route="ns" depart="291.89219121056146" />
<vehicle id="type1_148" type="type1" route="sn" depart="293.5984424837729" />
<vehicle id="type1_149" type="type1" route="ew" depart="294.0135795422555" />
<vehicle id="type1_150" type="type1" route="se" depart="302.6542346980232" />
<vehicle id="type1_151" type="type1" route="wn" depart="314.03718644688706" />
<vehicle id="type1_152" type="type1" route="es" depart="314.0991100065866" />
<vehicle id="type1_153" type="type1" route="ew" depart="314.1601859610838" />
<vehicle id="type1_154" type="type1" route="nw" depart="316.2544286857303" />
<vehicle id="type1_155" type="type1" route="ws" depart="318.0213006675694" />
<vehicle id="type1_156" type="type1" route="ns" depart="322.255703981228" />
<vehicle id="type1_157" type="type1" route="ne" depart="323.8558503490504" />
<vehicle id="type1_158" type="type1" route="wn" depart="336.2218642524994" />
<vehicle id="type1_159" type="type1" route="sw" depart="340.1818293656408" />
<vehicle id="type1_160" type="type1" route="ne" depart="342.26066929936945" />
<vehicle id="type1_161" type="type1" route="se" depart="343.5366333469472" />
<vehicle id="type1_162" type="type1" route="we" depart="345.08051522307306" />
<vehicle id="type1_163" type="type1" route="ws" depart="346.22983822241827" />
<vehicle id="type1_164" type="type1" route="ws" depart="347.46298138656283" />
<vehicle id="type1_165" type="type1" route="ne" depart="348.82736541326267" />
<vehicle id="type1_166" type="type1" route="sw" depart="349.62354818236076" />
<vehicle id="type1_167" type="type1" route="wn" depart="352.9774644761204" />
<vehicle id="type1_168" type="type1" route="se" depart="354.5941184322228" />
<vehicle id="type1_169" type="type1" route="nw" depart="354.7433123328725" />
<vehicle id="type1_170" type="type1" route="ew" depart="355.7468334756915" />
<vehicle id="type1_171" type="type1" route="sw" depart="357.5167565918999" />
<vehicle id="type1_172" type="type1" route="es" depart="357.7286427618513" />
<vehicle id="type1_173" type="type1" route="ws" depart="359.8513092356281" />
<vehicle id="type1_174" type="type1" route="ws" depart="361.77644519540047" />
<vehicle id="type1_175" type="type1" route="sw" depart="365.94955911126834" />
<vehicle id="type1_176" type="type1" route="we" depart="367.50077469340926" />
<vehicle id="type1_177" type="type1" route="ew" depart="370.569429478935" />
<vehicle id="type1_178" type="type1" route="ns" depart="371.4251581968753" />
<vehicle id="type1_179" type="type1" route="ws" depart="373.4652627615492" />
<vehicle id="type1_180" type="type1" route="nw" depart="379.4224741186611" />
<vehicle id="type1_181" type="type1" route="se" depart="379.4760921674152" />
<vehicle id="type1_182" type="type1" route="ns" depart="386.08824051109235" />
<vehicle id="type1_183" type="type1" route="we" depart="388.53164466255294" />
<vehicle id="type1_184" type="type1" route="nw" depart="389.1504327922498" />
<vehicle id="type1_185" type="type1" route="ew" depart="392.64963012581813" />
<vehicle id="type1_186" type="type1" route="ns" depart="393.15644396648" />
<vehicle id="type1_187" type="type1" route="ns" depart="393.92724963387735" />
<vehicle id="type1_188" type="type1" route="ws" depart="395.0060507630208" />
<vehicle id="type1_189" type="type1" route="wn" depart="395.5663973607271" />
<vehicle id="type1_190" type="type1" route="ns" depart="397.8672719109931" />
<vehicle id="type1_191" type="type1" route="wn" depart="398.19296207923" />
<vehicle id="type1_192" type="type1" route="ws" depart="401.0296346829173" />
<vehicle id="type1_193" type="type1" route="sw" depart="402.2065226868264" />
<vehicle id="type1_194" type="type1" route="sw" depart="403.29751570099086" />
<vehicle id="type1_195" type="type1" route="ew" depart="403.4975697192524" />
<vehicle id="type1_196" type="type1" route="nw" depart="404.22409379787683" />
<vehicle id="emv_4" type="rescue" route="en" depart="404.3914313003297" />
<vehicle id="type1_197" type="type1" route="we" depart="406.3714494655153" />
<vehicle id="type1_198" type="type1" route="wn" depart="406.76663227384813" />
<vehicle id="type1_199" type="type1" route="se" depart="407.8181247899344" />
<vehicle id="type1_200" type="type1" route="wn" depart="407.99581310910577" />
<vehicle id="type1_201" type="type1" route="ew" depart="414.1456114903359" />
<vehicle id="type1_202" type="type1" route="ns" depart="416.26066029166435" />
<vehicle id="type1_203" type="type1" route="en" depart="417.0476493692965" />
<vehicle id="type1_204" type="type1" route="se" depart="417.86437902350434" />
<vehicle id="type1_205" type="type1" route="nw" depart="421.05729089773365" />
<vehicle id="type1_206" type="type1" route="wn" depart="423.55356216297554" />
<vehicle id="type1_207" type="type1" route="we" depart="424.78500971543986" />
<vehicle id="type1_208" type="type1" route="we" depart="425.40170340103583" />
<vehicle id="type1_209" type="type1" route="we" depart="427.26727286225497" />
<vehicle id="type1_210" type="type1" route="nw" depart="428.0953591921528" />
<vehicle id="type1_211" type="type1" route="sn" depart="430.399649500601" />
<vehicle id="type1_212" type="type1" route="ws" depart="431.47380746922994" />
<vehicle id="type1_213" type="type1" route="sn" depart="431.9243032303787" />
<vehicle id="type1_214" type="type1" route="nw" depart="432.56491367647453" />
<vehicle id="type1_215" type="type1" route="en" depart="434.90584958102875" />
<vehicle id="type1_216" type="type1" route="sw" depart="443.59238102314083" />
<vehicle id="type1_217" type="type1" route="en" depart="446.79769599064946" />
<vehicle id="type1_218" type="type1" route="sw" depart="450.91392793181933" />
<vehicle id="type1_219" type="type1" route="es" depart="453.88438122357326" />
<vehicle id="type1_220" type="type1" route="se" depart="454.6895173882165" />
<vehicle id="type1_221" type="type1" route="wn" depart="455.9117459548526" />
<vehicle id="type1_222" type="type1" route="es" depart="457.39256521647064" />
<vehicle id="type1_223" type="type1" route="es" depart="462.910862092182" />
<vehicle id="type1_224" type="type1" route="sn" depart="463.4524996158685" />
<vehicle id="type1_225" type="type1" route="en" depart="466.641426703985" />
<vehicle id="type1_226" type="type1" route="ew" depart="468.98656644883755" />
<vehicle id="type1_227" type="type1" route="sn" depart="477.04619008369235" />
<vehicle id="type1_228" type="type1" route="nw" depart="479.0485652810472" />
<vehicle id="type1_229" type="type1" route="ws" depart="481.731560008944" />
<vehicle id="type1_230" type="type1" route="wn" depart="486.27950031571453" />
<vehicle id="type1_231" type="type1" route="wn" depart="490.4305165795918" />
<vehicle id="type1_232" type="type1" route="we" depart="491.87643241733866" />
<vehicle id="emv_5" type="rescue" route="sn" depart="495.3409112587397" />
<vehicle id="type1_233" type="type1" route="ns" depart="495.92696758353895" />
<vehicle id="type1_234" type="type1" route="se" depart="495.9591076832466" />
<vehicle id="type1_235" type="type1" route="ne" depart="497.2663558599909" />
<vehicle id="type1_236" type="type1" route="en" depart="498.3361748188726" />
<vehicle id="type1_237" type="type1" route="we" depart="502.50123073042187" />
<vehicle id="type1_238" type="type1" route="we" depart="502.7381566508555" />
<vehicle id="type1_239" type="type1" route="en" depart="505.89687102560316" />
<vehicle id="type1_240" type="type1" route="en" depart="506.4288220406253" />
<vehicle id="type1_241" type="type1" route="es" depart="509.3797836591974" />
<vehicle id="type1_242" type="type1" route="wn" depart="512.3835243557369" />
<vehicle id="type1_243" type="type1" route="ne" depart="513.711527356044" />
<vehicle id="type1_244" type="type1" route="es" depart="514.6956763637842" />
<vehicle id="type1_245" type="type1" route="ne" depart="515.7162970696506" />
<vehicle id="type1_246" type="type1" route="se" depart="516.697348086942" />
<vehicle id="type1_247" type="type1" route="ns" depart="517.3826366001379" />
<vehicle id="type1_248" type="type1" route="es" depart="518.2959331947237" />
<vehicle id="type1_249" type="type1" route="es" depart="522.5072177054855" />
<vehicle id="type1_250" type="type1" route="sn" depart="522.8223886735715" />
<vehicle id="type1_251" type="type1" route="we" depart="523.3960019047126" />
<vehicle id="type1_252" type="type1" route="ne" depart="523.9634027572768" />
<vehicle id="type1_253" type="type1" route="se" depart="523.9963320063124" />
<vehicle id="type1_254" type="type1" route="ns" depart="528.5280696954703" />
<vehicle id="type1_255" type="type1" route="wn" depart="532.9141287175414" />
<vehicle id="type1_256" type="type1" route="sn" depart="533.0355066130016" />
<vehicle id="type1_257" type="type1" route="sw" depart="533.6633562604295" />
<vehicle id="type1_258" type="type1" route="es" depart="533.6749400075857" />
<vehicle id="type1_259" type="type1" route="se" depart="533.9069737726549" />
<vehicle id="type1_260" type="type1" route="sw" depart="534.2836489011243" />
<vehicle id="type1_261" type="type1" route="ns" depart="534.5582251190259" />
<vehicle id="type1_262" type="type1" route="ws" depart="538.5609090464885" />
<vehicle id="type1_263" type="type1" route="ew" depart="538.7190691531737" />
<vehicle id="type1_264" type="type1" route="es" depart="540.9175296580498" />
<vehicle id="type1_265" type="type1" route="we" depart="542.7984623427841" />
<vehicle id="type1_266" type="type1" route="es" depart="545.4761234811244" />
<vehicle id="type1_267" type="type1" route="ew" depart="548.5036273665017" />
<vehicle id="type1_268" type="type1" route="sw" depart="549.7216595951818" />
<vehicle id="type1_269" type="type1" route="we" depart="550.3104142065337" />
<vehicle id="type1_270" type="type1" route="ew" depart="551.3157619756081" />
<vehicle id="type1_271" type="type1" route="es" depart="552.5461289038716" />
<vehicle id="type1_272" type="type1" route="wn" depart="554.1194127339494" />
<vehicle id="type1_273" type="type1" route="we" depart="554.1924885623754" />
<vehicle id="type1_274" type="type1" route="we" depart="554.8521682797775" />
<vehicle id="type1_275" type="type1" route="ew" depart="556.5644345274571" />
<vehicle id="type1_276" type="type1" route="we" depart="559.339472473762" />
<vehicle id="type1_277" type="type1" route="ns" depart="559.8167005829016" />
<vehicle id="type1_278" type="type1" route="nw" depart="560.7917938379829" />
<vehicle id="type1_279" type="type1" route="we" depart="561.9466723437184" />
<vehicle id="type1_280" type="type1" route="wn" depart="563.6054549730131" />
<vehicle id="type1_281" type="type1" route="es" depart="564.0536390449021" />
<vehicle id="type1_282" type="type1" route="sn" depart="566.5330249857329" />
<vehicle id="type1_283" type="type1" route="nw" depart="566.813323597513" />
<vehicle id="type1_284" type="type1" route="ns" depart="567.2150367520884" />
<vehicle id="type1_285" type="type1" route="sw" depart="569.4162613967311" />
<vehicle id="type1_286" type="type1" route="ws" depart="571.4580961943371" />
<vehicle id="type1_287" type="type1" route="ns" depart="574.1959808115212" />
<vehicle id="type1_288" type="type1" route="se" depart="577.12287692203" />
<vehicle id="type1_289" type="type1" route="nw" depart="580.5572607713334" />
<vehicle id="type1_290" type="type1" route="sw" depart="582.3059274259354" />
<vehicle id="type1_291" type="type1" route="ws" depart="584.9298963900485" />
<vehicle id="type1_292" type="type1" route="ew" depart="586.1322051462795" />
<vehicle id="type1_293" type="type1" route="se" depart="587.7794161714538" />
<vehicle id="type1_294" type="type1" route="ns" depart="588.2876106697112" />
<vehicle id="type1_295" type="type1" route="ns" depart="588.5588484843013" />
<vehicle id="type1_296" type="type1" route="wn" depart="589.775332592327" />
<vehicle id="type1_297" type="type1" route="ns" depart="590.17142653577" />
<vehicle id="type1_298" type="type1" route="ws" depart="590.498823741943" />
<vehicle id="type1_299" type="type1" route="ws" depart="591.5042216868043" />
<vehicle id="type1_300" type="type1" route="se" depart="593.2643739402697" />
<vehicle id="type1_301" type="type1" route="se" depart="594.5759599557109" />
<vehicle id="type1_302" type="type1" route="ws" depart="597.8579662293618" />
<vehicle id="type1_303" type="type1" route="wn" depart="598.4241105592718" />
<vehicle id="type1_304" type="type1" route="se" depart="599.6866125345769" />
<vehicle id="type1_305" type="type1" route="sw" depart="601.4064795432572" />
<vehicle id="type1_306" type="type1" route="wn" depart="601.6652421057436" />
<vehicle id="type1_307" type="type1" route="es" depart="602.1159408866614" />
<vehicle id="type1_308" type="type1" route="es" depart="602.8480942625298" />
<vehicle id="type1_309" type="type1" route="sn" depart="606.7064301406613" />
<vehicle id="type1_310" type="type1" route="se" depart="606.7566822019038" />
<vehicle id="type1_311" type="type1" route="wn" depart="607.3346920621324" />
<vehicle id="type1_312" type="type1" route="sn" depart="609.5174961535869" />
<vehicle id="type1_313" type="type1" route="we" depart="611.6774713855791" />
<vehicle id="type1_314" type="type1" route="we" depart="615.4852347094159" />
<vehicle id="type1_315" type="type1" route="wn" depart="616.1236977634615" />
<vehicle id="type1_316" type="type1" route="we" depart="617.3854851418652" />
<vehicle id="type1_317" type="type1" route="we" depart="620.5822241259151" />
<vehicle id="type1_318" type="type1" route="nw" depart="622.9522743443484" />
<vehicle id="type1_319" type="type1" route="sn" depart="623.7530182122017" />
<vehicle id="type1_320" type="type1" route="sw" depart="623.9941870483555" />
<vehicle id="type1_321" type="type1" route="sw" depart="624.3453956023187" />
<vehicle id="type1_322" type="type1" route="sn" depart="626.4776989247061" />
<vehicle id="type1_323" type="type1" route="es" depart="626.6996050725182" />
<vehicle id="type1_324" type="type1" route="nw" depart="628.117400082996" />
<vehicle id="type1_325" type="type1" route="ns" depart="628.2525859696299" />
<vehicle id="type1_326" type="type1" route="ne" depart="633.2669920267144" />
<vehicle id="type1_327" type="type1" route="wn" depart="639.8937183659268" />
<vehicle id="type1_328" type="type1" route="ns" depart="643.1325644414056" />
<vehicle id="type1_329" type="type1" route="ne" depart="647.9225892969461" />
<vehicle id="type1_330" type="type1" route="ew" depart="649.5299565970817" />
<vehicle id="type1_331" type="type1" route="ew" depart="650.4838272227079" />
<vehicle id="type1_332" type="type1" route="nw" depart="654.0978918454986" />
<vehicle id="type1_333" type="type1" route="wn" depart="655.3903338745038" />
<vehicle id="type1_334" type="type1" route="ne" depart="655.6021015660659" />
<vehicle id="emv_6" type="rescue" route="ws" depart="656.4281450095102" />
<vehicle id="type1_335" type="type1" route="en" depart="657.043327289391" />
<vehicle id="type1_336" type="type1" route="en" depart="659.0487151260936" />
<vehicle id="type1_337" type="type1" route="en" depart="659.0790089790538" />
<vehicle id="type1_338" type="type1" route="ns" depart="663.44658076134" />
<vehicle id="type1_339" type="type1" route="se" depart="669.038121727404" />
<vehicle id="type1_340" type="type1" route="en" depart="669.284792425958" />
<vehicle id="type1_341" type="type1" route="se" depart="676.5809458912127" />
<vehicle id="type1_342" type="type1" route="ws" depart="677.4566611327123" />
<vehicle id="type1_343" type="type1" route="se" depart="677.8834815191804" />
<vehicle id="type1_344" type="type1" route="sn" depart="679.3599133947939" />
<vehicle id="type1_345" type="type1" route="sn" depart="681.462293713256" />
<vehicle id="type1_346" type="type1" route="ws" depart="682.4338465637211" />
<vehicle id="type1_347" type="type1" route="nw" depart="683.9228266458832" />
<vehicle id="type1_348" type="type1" route="ne" depart="685.4776615762307" />
<vehicle id="type1_349" type="type1" route="ew" depart="685.4926707304232" />
<vehicle id="type1_350" type="type1" route="sn" depart="686.2522303471949" />
<vehicle id="type1_351" type="type1" route="wn" depart="688.8705006064089" />
<vehicle id="type1_352" type="type1" route="ne" depart="689.5622340688541" />
<vehicle id="type1_353" type="type1" route="es" depart="690.9474786102365" />
<vehicle id="type1_354" type="type1" route="nw" depart="691.5550898936064" />
<vehicle id="type1_355" type="type1" route="sw" depart="693.1824854890546" />
<vehicle id="type1_356" type="type1" route="en" depart="693.5789640674744" />
<vehicle id="type1_357" type="type1" route="wn" depart="694.8350702020172" />
<vehicle id="type1_358" type="type1" route="nw" depart="697.5174042996066" />
<vehicle id="type1_359" type="type1" route="nw" depart="700.3654873779752" />
<vehicle id="type1_360" type="type1" route="nw" depart="702.7118146637861" />
<vehicle id="type1_361" type="type1" route="nw" depart="702.721257776778" />