<routes>
            <vType id="type1" accel="0.8" decel="4.5" sigma="0.5" length="5" maxSpeed="70"/>
            <vType id="rescue" vClass="emergency" speedFactor="1.5" guiShape="emergency">
                <param key="has.bluelight.device" value="true"/>
            </vType>
            <route id="ne" edges="ni eo"/>
            <route id="ns" edges="ni so"/>
            <route id="nw" edges="ni wo"/>
            <route id="en" edges="ei no"/>
            <route id="es" edges="ei so"/>
            <route id="ew" edges="ei wo"/>
            <route id="sn" edges="si no"/>
            <route id="se" edges="si eo"/>
            <route id="sw" edges="si wo"/>
            <route id="wn" edges="wi no"/>
            <route id="we" edges="wi eo"/>
            <route id="ws" edges="wi so"/>
        
            <personFlow id="p_sn" begin="0" end="400" period="50">
                <walk route="sn"/>
            </personFlow>
                         
            <personFlow id="p_we" begin="0" end="400" period="50">
                <walk route="we"/>
            </personFlow>
                         
            <personFlow id="p_ew" begin="0" end="400" period="50">
                <walk route="ew"/>
            </personFlow>
                         
            <personFlow id="p_ns" begin="0" end="400" period="50">
                <walk route="ns"/>
            </personFlow>
                         <vehicle id="type1_1" type="type1" route="sn" depart="0.2570118953259397" />
<vehicle id="type1_2" type="type1" route="ne" depart="3.0041732503307603" />
<vehicle id="type1_3" type="type1" route="ws" depart="5.402795690750535" />
<vehicle id="type1_4" type="type1" route="es" depart="6.485560078284142" />
<vehicle id="type1_5" type="type1" route="se" depart="7.0098169117322024" />
<vehicle id="type1_6" type="type1" route="ws" depart="8.006872650195847" />
<vehicle id="type1_7" type="type1" route="wn" depart="8.51688098272748" />
<vehicle id="type1_8" type="type1" route="se" depart="11.105221111069186" />
<vehicle id="type1_9" type="type1" route="en" depart="19.117567235403115" />
<vehicle id="type1_10" type="type1" route="sn" depart="19.670043608192334" />
<vehicle id="type1_11" type="type1" route="nw" depart="21.51327920408531" />
<vehicle id="type1_12" type="type1" route="sn" depart="22.749875496990526" />
<vehicle id="type1_13" type="type1" route="ew" depart="25.59487057009608" />
<vehicle id="type1_14" type="type1" route="nw" depart="26.05884295293101" />
<vehicle id="type1_15" type="type1" route="wn" depart="28.134075822319975" />
<vehicle id="type1_16" type="type1" route="es" depart="36.87860818944255" />
<vehicle id="type1_17" type="type1" route="en" depart="38.60348591340994" />
<vehicle id="type1_18" type="type1" route="ew" depart="39.513568276094006" />
<vehicle id="type1_19" type="type1" route="se" depart="39.809696287473464" />
<vehicle id="type1_20" type="type1" route="en" depart="44.29616347862928" />
<vehicle id="type1_21" type="type1" route="wn" depart="45.25369066559324" />
<vehicle id="type1_22" type="type1" route="ws" depart="50.64185631075949" />
<vehicle id="type1_23" type="type1" route="nw" depart="54.94018385360796" />
<vehicle id="type1_24" type="type1" route="es" depart="57.79740791208824" />
<vehicle id="type1_25" type="type1" route="sn" depart="59.736639923668804" />
<vehicle id="emv_1" type="rescue" route="es" depart="61.60883218517382" />
<vehicle id="type1_26" type="type1" route="ws" depart="61.82516561908396" />
<vehicle id="type1_27" type="type1" route="ne" depart="63.97195786078538" />
<vehicle id="type1_28" type="type1" route="wn" depart="65.917860523535" />
<vehicle id="emv_2" type="rescue" route="es" depart="66.35802601358274" />
<vehicle id="type1_29" type="type1" route="we" depart="68.49685765153464" />
<vehicle id="type1_30" type="type1" route="ew" depart="73.97236496176053" />
<vehicle id="type1_31" type="type1" route="ew" depart="74.03916997656849" />
<vehicle id="type1_32" type="type1" route="ew" depart="77.90548920740606" />
<vehicle id="type1_33" type="type1" route="wn" depart="83.71789800608458" />
<vehicle id="type1_34" type="type1" route="we" depart="84.19710172474109" />
<vehicle id="type1_35" type="type1" route="sw" depart="86.0191985006836" />
<vehicle id="type1_36" type="type1" route="sn" depart="87.77001597390856" />
<vehicle id="type1_37" type="type1" route="en" depart="88.64524940470517" />
<vehicle id="type1_38" type="type1" route="ns" depart="90.60388248661056" />
<vehicle id="type1_39" type="type1" route="sn" depart="92.72942920140966" />
<vehicle id="type1_40" type="type1" route="se" depart="94.66885252599337" />
<vehicle id="emv_3" type="rescue" route="wn" depart="95.58632398685086" />
<vehicle id="type1_41" type="type1" route="ew" depart="95.82151342084828" />
<vehicle id="type1_42" type="type1" route="se" depart="99.95153610111768" />
<vehicle id="type1_43" type="type1" route="ws" depart="101.22250210512054" />
<vehicle id="type1_44" type="type1" route="es" depart="104.11817507928374" />
<vehicle id="type1_45" type="type1" route="en" depart="104.72423886395265" />
<vehicle id="type1_46" type="type1" route="en" depart="107.02907640057953" />
<vehicle id="type1_47" type="type1" route="wn" depart="107.08426510682041" />
<vehicle id="type1_48" type="type1" route="sw" depart="107.54219854241725" />
<vehicle id="type1_49" type="type1" route="ws" depart="111.57833918980405" />
<vehicle id="type1_50" type="type1" route="sw" depart="112.72620626037238" />
<vehicle id="type1_51" type="type1" route="sn" depart="114.01164738889769" />
<vehicle id="type1_52" type="type1" route="es" depart="116.5807782799565" />
<vehicle id="type1_53" type="type1" route="ws" depart="117.44313237116006" />
<vehicle id="type1_54" type="type1" route="sw" depart="124.22399254598758" />
<vehicle id="type1_55" type="type1" route="sw" depart="125.40362429527296" />
<vehicle id="type1_56" type="type1" route="es" depart="128.60173137892863" />
<vehicle id="type1_57" type="type1" route="wn" depart="129.77730170745676" />
<vehicle id="type1_58" type="type1" route="wn" depart="130.98349173057258" />
<vehicle id="type1_59" type="type1" route="wn" depart="136.18573222361033" />
<vehicle id="type1_60" type="type1" route="se" depart="136.41310954633437" />
<vehicle id="type1_61" type="type1" route="es" depart="136.90291440878343" />
<vehicle id="type1_62" type="type1" route="we" depart="137.10304015658258" />
<vehicle id="type1_63" type="type1" route="es" depart="138.85909748188573" />
<vehicle id="type1_64" type="type1" route="ws" depart="139.15481935486358" />
<vehicle id="type1_65" type="type1" route="ne" depart="139.1777462582012" />
<vehicle id="type1_66" type="type1" route="ne" depart="146.1819458986514" />
<vehicle id="type1_67" type="type1" route="nw" depart="148.43546049063184" />
<vehicle id="type1_68" type="type1" route="we" depart="150.0948625513478" />
<vehicle id="type1_69" type="type1" route="ew" depart="153.04875928489912" />
<vehicle id="type1_70" type="type1" route="wn" depart="154.73013073615323" />
<vehicle id="type1_71" type="type1" route="ns" depart="156.46173776057924" />
<vehicle id="type1_72" type="type1" route="ns" depart="169.62571362849872" />
<vehicle id="type1_73" type="type1" route="en" depart="172.5166548821216" />
<vehicle id="type1_74" type="type1" route="es" depart="173.85142704577524" />
<vehicle id="type1_75" type="type1" route="es" depart="174.77133787669538" />
<vehicle id="type1_76" type="type1" route="sn" depart="178.27145701118042" />
<vehicle id="type1_77" type="type1" route="se" depart="185.9372940708408" />
<vehicle id="type1_78" type="type1" route="sw" depart="186.73475391806147" />
<vehicle id="type1_79" type="type1" route="se" depart="186.88818391457963" />
<vehicle id="type1_80" type="type1" route="ew" depart="186.9045010510541" />
<vehicle id="type1_81" type="type1" route="sw" depart="187.24721089833255" />
<vehicle id="type1_82" type="type1" route="es" depart="188.30479316767475" />
<vehicle id="type1_83" type="type1" route="en" depart="188.6834577458007" />
<vehicle id="type1_84" type="type1" route="es" depart="193.65373213070288" />
<vehicle id="type1_85" type="type1" route="en" depart="193.77346860585865" />
<vehicle id="type1_86" type="type1" route="wn" depart="194.78611757403635" />
<vehicle id="type1_87" type="type1" route="sn" depart="197.85324903111405" />
<vehicle id="type1_88" type="type1" route="ew" depart="200.4772485008411" />
<vehicle id="type1_89" type="type1" route="we" depart="200.9826839870498" />
<vehicle id="type1_90" type="type1" route="en" depart="201.02701158438472" />
<vehicle id="type1_91" type="type1" route="ne" depart="202.08963014316876" />
<vehicle id="type1_92" type="type1" route="sw" depart="205.49311147230318" />
<vehicle id="type1_93" type="type1" route="we" depart="207.9670909864059" />
<vehicle id="type1_94" type="type1" route="nw" depart="208.87464870641728" />
<vehicle id="type1_95" type="type1" route="wn" depart="210.70697809439514" />
<vehicle id="type1_96" type="type1" route="en" depart="211.19655629495128" />
<vehicle id="type1_97" type="type1" route="ws" depart="211.79269028093955" />
<vehicle id="type1_98" type="type1" route="en" depart="214.07245071868334" />
<vehicle id="type1_99" type="type1" route="ew" depart="218.72490598661747" />
<vehicle id="type1_100" type="type1" route="sw" depart="227.93297887182283" />
<vehicle id="type1_101" type="type1" route="ne" depart="229.86774473460895" />
<vehicle id="type1_102" type="type1" route="en" depart="231.99207175003082" />
<vehicle id="type1_103" type="type1" route="ew" depart="234.52487111196092" />
<vehicle id="type1_104" type="type1" route="ne" depart="237.1728365196194" />
<vehicle id="type1_105" type="type1" route="wn" depart="242.7200657994844" />
<vehicle id="type1_106" type="type1" route="es" depart="243.2897844975881" />
<vehicle id="type1_107" type="type1" route="ns" depart="244.95227285941883" />
<vehicle id="type1_108" type="type1" route="ws" depart="246.58546773052336" />
<vehicle id="type1_109" type="type1" route="sn" depart="247.8377937048899" />
<vehicle id="type1_110" type="type1" route="we" depart="248.77836844890402" />
<vehicle id="type1_111" type="type1" route="sw" depart="249.561230244209" />
<vehicle id="type1_112" type="type1" route="en" depart="250.82080692121025" />
<vehicle id="type1_113" type="type1" route="sw" depart="251.38973739828808" />
<vehicle id="type1_114" type="type1" route="nw" depart="252.61414929045245" />
<vehicle id="type1_115" type="type1" route="ns" depart="253.6279070358474" />
<vehicle id="type1_116" type="type1" route="sw" depart="255.00937568497204" />
<vehicle id="type1_117" type="type1" route="we" depart="255.76684397263998" />
<vehicle id="type1_118" type="type1" route="we" depart="256.5444084194274" />
<vehicle id="type1_119" type="type1" route="se" depart="257.38959339463787" />
<vehicle id="type1_120" type="type1" route="we" depart="257.60596287216" />
<vehicle id="type1_121" type="type1" route="sw" depart="258.8466921378295" />
<vehicle id="type1_122" type="type1" route="ws" depart="259.15503891188285" />
<vehicle id="type1_123" type="type1" route="nw" depart="259.54774182091023" />
<vehicle id="type1_124" type="type1" route="ws" depart="259.761440582096" />
<vehicle id="type1_125" type="type1" route="we" depart="259.78494353296475" />
<vehicle id="type1_126" type="type1" route="wn" depart="262.62844842099474" />
<vehicle id="type1_127" type="type1" route="ws" depart="263.37708047974576" />
<vehicle id="type1_128" type="type1" route="sw" depart="264.4884068750631" />
<vehicle id="type1_129" type="type1" route="ne" depart="265.1525139594556" />
<vehicle id="type1_130" type="type1" route="we" depart="269.0583604158176" />
<vehicle id="type1_131" type="type1" route="ws" depart="275.0761203981277" />
<vehicle id="type1_132" type="type1" route="ne" depart="275.171209639246" />
<vehicle id="type1_133" type="type1" route="nw" depart="280.7829630657577" />
<vehicle id="type1_134" type="type1" route="sw" depart="281.33202916551744" />
<vehicle id="type1_135" type="type1" route="ne" depart="283.6734976433134" />
<vehicle id="type1_136" type="type1" route="nw" depart="284.28435037840626" />
<vehicle id="type1_137" type="type1" route="en" depart="286.6443284863428" />
<vehicle id="type1_138" type="type1" route="nw" depart="287.8721091361278" />
<vehicle id="type1_139" type="type1" route="nw" depart="288.9392047665959" />
<vehicle id="type1_140" type="type1" route="sn" depart="290.13047779739827" />
<vehicle id="type1_141" type="type1" route="ws" depart="291.7534541763596" />
<vehicle id="type1_142" type="type1" route="se" depart="292.329869965026" />
<vehicle id="type1_143" type="type1" route="sn" depart="293.65671856190073" />
<vehicle id="type1_144" type="type1" route="nw" depart="293.98280443970634" />
<vehicle id="type1_145" type="type1" route="ns" depart="294.918123293225" />
<vehicle id="type1_146" type="type1" route="es" depart="296.8305389866244" />
<vehicle id="type1_147" type="type1" route="ws" depart="297.77090807437025" />
<vehicle id="type1_148" type="type1" route="wn" depart="299.27380255696613" />
<vehicle id="type1_149" type="type1" route="ws" depart="300.4555833519694" />
<vehicle id="type1_150" type="type1" route="ns" depart="302.4808445342131" />
<vehicle id="type1_151" type="type1" route="ew" depart="304.254750212201" />
<vehicle id="type1_152" type="type1" route="ew" depart="309.0637076728043" />
<vehicle id="type1_153" type="type1" route="ws" depart="311.8158695115754" />
<vehicle id="type1_154" type="type1" route="nw" depart="312.54055455354734" />
<vehicle id="type1_155" type="type1" route="wn" depart="313.24029358202586" />
<vehicle id="type1_156" type="type1" route="we" depart="313.7315649231369" />
<vehicle id="type1_157" type="type1" route="nw" depart="315.98899570206305" />
<vehicle id="type1_158" type="type1" route="ns" depart="316.3321956194341" />
<vehicle id="type1_159" type="type1" route="es" depart="316.74164192113875" />
<vehicle id="type1_160" type="type1" route="sn" depart="317.0012329676149" />
<vehicle id="type1_161" type="type1" route="ne" depart="319.0965688467342" />
<vehicle id="emv_4" type="rescue" route="sn" depart="322.3519089419887" />
<vehicle id="type1_162" type="type1" route="sn" depart="322.46272745394253" />
<vehicle id="emv_5" type="rescue" route="ne" depart="322.5275218351225" />
<vehicle id="type1_163" type="type1" route="se" depart="328.82343293508296" />
<vehicle id="type1_164" type="type1" route="ws" depart="331.11049934729607" />
<vehicle id="type1_165" type="type1" route="ew" depart="334.6529452845754" />
<vehicle id="type1_166" type="type1" route="en" depart="336.04842553748324" />
<vehicle id="type1_167" type="type1" route="wn" depart="339.53982226479195" />
<vehicle id="type1_168" type="type1" route="wn" depart="341.0963708536682" />
<vehicle id="type1_169" type="type1" route="ne" depart="342.31614570152846" />
<vehicle id="type1_170" type="type1" route="ns" depart="344.9811115993859" />
<vehicle id="type1_171" type="type1" route="we" depart="349.5941920103194" />
<vehicle id="type1_172" type="type1" route="nw" depart="350.1305965181664" />
<vehicle id="type1_173" type="type1" route="es" depart="350.19287756211116" />
<vehicle id="type1_174" type="type1" route="we" depart="350.30441779809746" />
<vehicle id="type1_175" type="type1" route="se" depart="350.7891179733236" />
<vehicle id="type1_176" type="type1" route="se" depart="354.8391029784973" />
<vehicle id="type1_177" type="type1" route="ew" depart="355.6666349717604" />
<vehicle id="type1_178" type="type1" route="sn" depart="357.20573490089055" />
<vehicle id="type1_179" type="type1" route="nw" depart="359.2428039431994" />
<vehicle id="type1_180" type="type1" route="we" depart="361.773097145284" />
<vehicle id="type1_181" type="type1" route="nw" depart="365.7040382565686" />
<vehicle id="type1_182" type="type1" route="se" depart="367.24845307329457" />
<vehicle id="type1_183" type="type1" route="we" depart="369.441063520662" />
<vehicle id="type1_184" type="type1" route="ew" depart="370.2713790101193" />
<vehicle id="type1_185" type="type1" route="sw" depart="375.2573968033588" />
<vehicle id="type1_186" type="type1" route="sw" depart="379.91171287761455" />
<vehicle id="type1_187" type="type1" route="wn" depart="380.35957846099785" />
<vehicle id="type1_188" type="type1" route="sn" depart="381.98381675819564" />
<vehicle id="type1_189" type="type1" route="sw" depart="384.121439513195" />
<vehicle id="type1_190" type="type1" route="ws" depart="386.147936169167" />
<vehicle id="type1_191" type="type1" route="ns" depart="388.2482651866021" />
<vehicle id="type1_192" type="type1" route="we" depart="388.30889786809365" />
<vehicle id="type1_193" type="type1" route="ne" depart="397.2866978362711" />
<vehicle id="type1_194" type="type1" route="en" depart="399.60665878117385" />
<vehicle id="type1_195" type="type1" route="ns" depart="404.888815425432" />
<vehicle id="type1_196" type="type1" route="ws" depart="407.3585689832062" />
<vehicle id="type1_197" type="type1" route="ws" depart="409.7824675879243" />
<vehicle id="type1_198" type="type1" route="nw" depart="411.1154707866033" />
<vehicle id="type1_199" type="type1" route="sw" depart="417.305068952424" />
<vehicle id="type1_200" type="type1" route="sn" depart="418.81926871713574" />
<vehicle id="type1_201" type="type1" route="ws" depart="422.50656784207524" />
<vehicle id="type1_202" type="type1" route="ws" depart="426.70405192318066" />
<vehicle id="type1_203" type="type1" route="we" depart="427.68968604589224" />
<vehicle id="type1_204" type="type1" route="ws" depart="429.41074995905285" />
<vehicle id="type1_205" type="type1" route="ne" depart="429.694818341024" />
<vehicle id="type1_206" type="type1" route="ns" depart="430.1716975127127" />
<vehicle id="emv_6" type="rescue" route="ne" depart="431.4431404707363" />
<vehicle id="type1_207" type="type1" route="ns" depart="431.60178828355544" />
<vehicle id="type1_208" type="type1" route="nw" depart="434.62940868970134" />
<vehicle id="type1_209" type="type1" route="ne" depart="434.73787899336264" />
<vehicle id="type1_210" type="type1" route="sw" depart="435.78439219686686" />
<vehicle id="type1_211" type="type1" route="nw" depart="436.4529993845158" />
<vehicle id="type1_212" type="type1" route="es" depart="436.9689634530952" />
<vehicle id="type1_213" type="type1" route="sn" depart="437.6643932429901" />
<vehicle id="type1_214" type="type1" route="en" depart="440.8268323385578" />
<vehicle id="type1_215" type="type1" route="en" depart="443.56298087886387" />
<vehicle id="type1_216" type="type1" route="wn" depart="444.2753810139541" />
<vehicle id="type1_217" type="type1" route="ne" depart="445.39638007217485" />
<vehicle id="type1_218" type="type1" route="se" depart="449.55647768325406" />
<vehicle id="type1_219" type="type1" route="sw" depart="452.3767270231764" />
<vehicle id="type1_220" type="type1" route="nw" depart="453.6851180829509" />
<vehicle id="type1_221" type="type1" route="ew" depart="453.74962263159404" />
<vehicle id="type1_222" type="type1" route="ne" depart="453.8006345051097" />
<vehicle id="type1_223" type="type1" route="ne" depart="454.69876325187585" />
<vehicle id="type1_224" type="type1" route="sn" depart="456.26706480062853" />
<vehicle id="type1_225" type="type1" route="we" depart="457.6625544189443" />
<vehicle id="type1_226" type="type1" route="wn" depart="460.3769344655886" />
<vehicle id="type1_227" type="type1" route="ns" depart="464.706749758847" />
<vehicle id="type1_228" type="type1" route="sw" depart="465.0412676290674" />
<vehicle id="type1_229" type="type1" route="ws" depart="467.00155996276095" />
<vehicle id="type1_230" type="type1" route="es" depart="467.6711790622618" />
<vehicle id="type1_231" type="type1" route="sw" depart="468.2895223662331" />
<vehicle id="type1_232" type="type1" route="sn" depart="471.11773859221756" />
<vehicle id="type1_233" type="type1" route="sw" depart="480.6052675005209" />
<vehicle id="type1_234" type="type1" route="en" depart="482.11410006755403" />
<vehicle id="type1_235" type="type1" route="se" depart="483.2655384674875" />
<vehicle id="type1_236" type="type1" route="ns" depart="484.7404482952927" />
<vehicle id="type1_237" type="type1" route="ne" depart="485.257547769208" />
<vehicle id="type1_238" type="type1" route="ws" depart="489.87098260055836" />
<vehicle id="type1_239" type="type1" route="es" depart="490.73483333632254" />
<vehicle id="type1_240" type="type1" route="ns" depart="492.59978818614076" />
<vehicle id="type1_241" type="type1" route="se" depart="493.27555987129944" />
<vehicle id="type1_242" type="type1" route="ew" depart="494.8407662418487" />
<vehicle id="type1_243" type="type1" route="sw" depart="499.6173910585032" />
<vehicle id="type1_244" type="type1" route="es" depart="502.3572494713669" />
<vehicle id="type1_245" type="type1" route="ws" depart="503.5125344431071" />
<vehicle id="type1_246" type="type1" route="sn" depart="504.60194121593474" />
<vehicle id="type1_247" type="type1" route="en" depart="508.3578692267201" />
<vehicle id="type1_248" type="type1" route="ne" depart="508.83619294926416" />
<vehicle id="type1_249" type="type1" route="ns" depart="512.5960619059954" />
<vehicle id="type1_250" type="type1" route="sw" depart="512.7226075314248" />
<vehicle id="type1_251" type="type1" route="ws" depart="513.4264244320035" />
<vehicle id="type1_252" type="type1" route="se" depart="522.5770558705663" />
<vehicle id="type1_253" type="type1" route="se" depart="524.8005140628646" />
<vehicle id="type1_254" type="type1" route="ew" depart="525.0469050877147" />
<vehicle id="type1_255" type="type1" route="sw" depart="525.5128159354496" />
<vehicle id="type1_256" type="type1" route="se" depart="525.5345703523723" />
<vehicle id="type1_257" type="type1" route="ws" depart="526.4800096580395" />
<vehicle id="type1_258" type="type1" route="se" depart="526.622873073232" />
<vehicle id="type1_259" type="type1" route="en" depart="526.8317519025444" />
<vehicle id="type1_260" type="type1" route="en" depart="529.4868954111183" />
<vehicle id="type1_261" type="type1" route="we" depart="533.1817625353555" />
<vehicle id="type1_262" type="type1" route="es" depart="537.3674369630925" />
<vehicle id="type1_263" type="type1" route="ns" depart="540.0897948029902" />
<vehicle id="type1_264" type="type1" route="se" depart="543.2689931373009" />
<vehicle id="type1_265" type="type1" route="se" depart="547.0537065778037" />
<vehicle id="type1_266" type="type1" route="nw" depart="548.3994704058047" />
<vehicle id="type1_267" type="type1" route="ws" depart="548.4176287935696" />
<vehicle id="type1_268" type="type1" route="es" depart="548.8729349022451" />
<vehicle id="type1_269" type="type1" route="en" depart="552.1324348486237" />
<vehicle id="type1_270" type="type1" route="ws" depart="552.6260166306337" />
<vehicle id="type1_271" type="type1" route="en" depart="552.6693474124861" />
<vehicle id="type1_272" type="type1" route="se" depart="556.7767120033396" />
<vehicle id="type1_273" type="type1" route="en" depart="557.0790152522169" />
<vehicle id="type1_274" type="type1" route="es" depart="557.2669994814327" />
<vehicle id="type1_275" type="type1" route="se" depart="559.4881654755319" />
<vehicle id="type1_276" type="type1" route="es" depart="559.668513470139" />
<vehicle id="type1_277" type="type1" route="ew" depart="561.218725156907" />
<vehicle id="emv_7" type="rescue" route="en" depart="563.9274626567773" />
<vehicle id="type1_278" type="type1" route="wn" depart="566.3118962851776" />
<vehicle id="type1_279" type="type1" route="es" depart="567.4400464211843" />
<vehicle id="type1_280" type="type1" route="ws" depart="567.8676567261485" />
<vehicle id="type1_281" type="type1" route="sw" depart="569.4246845774231" />
<vehicle id="type1_282" type="type1" route="ws" depart="572.7800994091663" />
<vehicle id="type1_283" type="type1" route="wn" depart="574.4249209201874" />
<vehicle id="emv_8" type="rescue" route="ne" depart="575.3220628909975" />
<vehicle id="type1_284" type="type1" route="ns" depart="576.0010947962027" />
<vehicle id="type1_285" type="type1" route="we" depart="576.1481534864029" />
<vehicle id="type1_286" type="type1" route="ne" depart="576.9670122405282" />
<vehicle id="type1_287" type="type1" route="ws" depart="579.5262365606252" />
<vehicle id="type1_288" type="type1" route="ns" depart="583.4768669125699" />
<vehicle id="type1_289" type="type1" route="es" depart="584.3147641971665" />
<vehicle id="type1_290" type="type1" route="ns" depart="584.9779502049756" />
<vehicle id="type1_291" type="type1" route="en" depart="586.8090995863055" />
<vehicle id="type1_292" type="type1" route="ns" depart="588.1441302696293" />
<vehicle id="type1_293" type="type1" route="se" depart="590.1619733379695" />
<vehicle id="type1_294" type="type1" route="ns" depart="594.1918052391184" />
<vehicle id="type1_295" type="type1" route="ne" depart="596.1002036399475" />
<vehicle id="type1_296" type="type1" route="we" depart="599.8507657914264" />
<vehicle id="type1_297" type="type1" route="ne" depart="600.7400524757569" />
<vehicle id="type1_298" type="type1" route="ws" depart="600.8559454389613" />
<vehicle id="type1_299" type="type1" route="en" depart="601.1272561309092" />
<vehicle id="type1_300" type="type1" route="sn" depart="601.2020849723372" />
<vehicle id="type1_301" type="type1" route="ns" depart="601.5160582224388" />
<vehicle id="type1_302" type="type1" route="es" depart="602.5893087303164" />
<vehicle id="type1_303" type="type1" route="sn" depart="604.6227696622242" />
<vehicle id="type1_304" type="type1" route="ws" depart="613.15357882545" />
<vehicle id="type1_305" type="type1" route="ne" depart="613.6386144977945" />
<vehicle id="type1_306" type="type1" route="wn" depart="613.7284720378697" />
<vehicle id="type1_307" type="type1" route="wn" depart="618.558773131265" />
<vehicle id="type1_308" type="type1" route="ws" depart="619.4314203332711" />
<vehicle id="type1_309" type="type1" route="es" depart="621.0476020100359" />
<vehicle id="type1_310" type="type1" route="wn" depart="624.6234682384846" />
<vehicle id="type1_311" type="type1" route="ns" depart="628.6119715495581" />
<vehicle id="type1_312" type="type1" route="ns" depart="629.1277998251094" />
<vehicle id="type1_313" type="type1" route="ns" depart="631.6317032192172" />
<vehicle id="type1_314" type="type1" route="ws" depart="632.2464850684578" />
<vehicle id="type1_315" type="type1" route="nw" depart="632.5151246314401" />
<vehicle id="type1_316" type="type1" route="ws" depart="632.6414679471001" />
<vehicle id="type1_317" type="type1" route="ws" depart="634.1607745710613" />
<vehicle id="type1_318" type="type1" route="ns" depart="634.715508312058" />
<vehicle id="type1_319" type="type1" route="we" depart="637.4034893913672" />
<vehicle id="type1_320" type="type1" route="ns" depart="637.6035949976246" />
<vehicle id="type1_321" type="type1" route="nw" depart="640.1728541397927" />
<vehicle id="type1_322" type="type1" route="se" depart="642.5235503943074" />
<vehicle id="type1_323" type="type1" route="wn" depart="642.9011127040105" />
<vehicle id="type1_324" type="type1" route="wn" depart="644.0966736232514" />
<vehicle id="type1_325" type="type1" route="we" depart="645.4616385357939" />
<vehicle id="type1_326" type="type1" route="ew" depart="645.9986723725463" />
<vehicle id="type1_327" type="type1" route="ws" depart="646.726728556001" />
<vehicle id="type1_328" type="type1" route="ew" depart="650.1289691894068" />
<vehicle id="type1_329" type="type1" route="sn" depart="652.5484076859092" />
<vehicle id="type1_330" type="type1" route="wn" depart="653.0663090248653" />
<vehicle id="type1_331" type="type1" route="nw" depart="656.5426019695958" />
<vehicle id="type1_332" type="type1" route="nw" depart="657.7892402400906" />
<vehicle id="type1_333" type="type1" route="en" depart="657.8449946606497" />
<vehicle id="type1_334" type="type1" route="wn" depart="661.8170923203736" />
<vehicle id="type1_335" type="type1" route="wn" depart="661.9833239221326" />
<vehicle id="type1_336" type="type1" route="wn" depart="664.8769162172613" />
<vehicle id="type1_337" type="type1" route="en" depart="665.5417893259122" />
<vehicle id="type1_338" type="type1" route="es" depart="666.7172012326599" />
<vehicle id="type1_339" type="type1" route="we" depart="669.6191224915915" />
<vehicle id="type1_340" type="type1" route="se" depart="670.1735474791305" />
<vehicle id="type1_341" type="type1" route="wn" depart="671.5927823562545" />
<vehicle id="type1_342" type="type1" route="ws" depart="671.6196432608324" />
<vehicle id="type1_343" type="type1" route="we" depart="676.7956717007369" />
<vehicle id="type1_344" type="type1" route="we" depart="677.243897396355" />
<vehicle id="type1_345" type="type1" route="ne" depart="680.9224607526713" />
<vehicle id="type1_346" type="type1" route="sw" depart="682.1824383785813" />
<vehicle id="type1_347" type="type1" route="sn" depart="683.6025035909847" />
<vehicle id="type1_348" type="type1" route="ns" depart="683.6928893569639" />
<vehicle id="type1_349" type="type1" route="ns" depart="684.3073652510675" />
<vehicle id="type1_350" type="type1" route="sw" depart="685.7963482187416" />
<vehicle id="type1_351" type="type1" route="ew" depart="687.557235774441" />
<vehicle id="type1_352" type="type1" route="se" depart="689.7943127346905" />
<vehicle id="type1_353" type="type1" route="nw" depart="691.6316116446957" />
<vehicle id="type1_354" type="type1" route="en" depart="694.819928277254" />
<vehicle id="type1_355" type="type1" route="ns" depart="695.308279868109" />
<vehicle id="type1_356" type="type1" route="es" depart="698.6120520582242" />
<vehicle id="type1_357" type="type1" route="es" depart="700.0403734775783" />
<vehicle id="type1_358" type="type1" route="sn" depart="704.2422082184644" />