<routes>
            <vType id="type1" accel="0.8" decel="4.5" sigma="0.5" length="5" maxSpeed="70"/>
            <vType id="rescue" vClass="emergency" speedFactor="1.5" guiShape="emergency">
                <param key="has.bluelight.device" value="true"/>
            </vType>
            <route id="ne" edges="ni eo"/>
            <route id="ns" edges="ni so"/>
            <route id="nw" edges="ni wo"/>
            <route id="en" edges="ei no"/>
            <route id="es" edges="ei so"/>
            <route id="ew" edges="ei wo"/>
            <route id="sn" edges="si no"/>
            <route id="se" edges="si eo"/>
            <route id="sw" edges="si wo"/>
            <route id="wn" edges="wi no"/>
            <route id="we" edges="wi eo"/>
            <route id="ws" edges="wi so"/>
        <vehicle id="type1_1" type="type1" route="wn" depart="1.7406281317324173" />
<vehicle id="type1_2" type="type1" route="sn" depart="5.693887124278939" />
<vehicle id="type1_3" type="type1" route="en" depart="7.462677870923375" />
<vehicle id="type1_4" type="type1" route="sn" depart="10.638380161261761" />
<vehicle id="type1_5" type="type1" route="we" depart="12.204553809639295" />
<vehicle id="type1_6" type="type1" route="ne" depart="12.329847123595963" />
<vehicle id="type1_7" type="type1" route="ew" depart="12.984822202362917" />
<vehicle id="emv_1" type="rescue" route="ws" depart="13.55814714263605" />
<vehicle id="type1_8" type="type1" route="ne" depart="13.601577120057339" />
<vehicle id="type1_9" type="type1" route="nw" depart="14.808370472550857" />
<vehicle id="type1_10" type="type1" route="se" depart="16.474169717173233" />
<vehicle id="type1_11" type="type1" route="we" depart="17.312421280849204" />
<vehicle id="type1_12" type="type1" route="nw" depart="17.578655008343002" />
<vehicle id="type1_13" type="type1" route="we" depart="18.640288497934346" />
<vehicle id="type1_14" type="type1" route="sn" depart="20.612839319347046" />
<vehicle id="type1_15" type="type1" route="en" depart="22.452735549456992" />
<vehicle id="type1_16" type="type1" route="wn" depart="27.506333409177053" />
<vehicle id="type1_17" type="type1" route="wn" depart="27.634974697981846" />
<vehicle id="type1_18" type="type1" route="nw" depart="30.578843993348926" />
<vehicle id="type1_19" type="type1" route="es" depart="32.84153937559542" />
<vehicle id="type1_20" type="type1" route="en" depart="32.93798427402229" />
<vehicle id="type1_21" type="type1" route="sw" depart="33.356638800769815" />
<vehicle id="type1_22" type="type1" route="sn" depart="35.305449302447485" />
<vehicle id="type1_23" type="type1" route="wn" depart="35.539984949915066" />
<vehicle id="type1_24" type="type1" route="sw" depart="37.52745917907848" />
<vehicle id="type1_25" type="type1" route="en" depart="39.62883983292401" />
<vehicle id="type1_26" type="type1" route="en" depart="41.206894296281256" />
<vehicle id="type1_27" type="type1" route="sn" depart="42.94454245484261" />
<vehicle id="type1_28" type="type1" route="wn" depart="43.059144161394265" />
<vehicle id="type1_29" type="type1" route="sw" depart="43.26625459619107" />
<vehicle id="type1_30" type="type1" route="ns" depart="45.10155596362023" />
<vehicle id="type1_31" type="type1" route="wn" depart="45.127012231383986" />
<vehicle id="type1_32" type="type1" route="wn" depart="46.16578151580489" />
<vehicle id="type1_33" type="type1" route="ns" depart="46.50720601404809" />
<vehicle id="type1_34" type="type1" route="en" depart="46.779509531842606" />
<vehicle id="type1_35" type="type1" route="se" depart="46.856029349901256" />
<vehicle id="type1_36" type="type1" route="sn" depart="49.64582213660178" />
<vehicle id="type1_37" type="type1" route="es" depart="50.36966431302423" />
<vehicle id="type1_38" type="type1" route="sw" depart="55.152418133285124" />
<vehicle id="type1_39" type="type1" route="ns" depart="56.35179195529481" />
<vehicle id="type1_40" type="type1" route="es" depart="56.9326055099287" />
<vehicle id="type1_41" type="type1" route="we" depart="57.679137079580514" />
<vehicle id="type1_42" type="type1" route="nw" depart="58.13416562660793" />
<vehicle id="type1_43" type="type1" route="sn" depart="59.097930051957285" />
<vehicle id="type1_44" type="type1" route="ew" depart="59.31159826986305" />
<vehicle id="type1_45" type="type1" route="ne" depart="59.921303682902014" />
<vehicle id="type1_46" type="type1" route="ne" depart="60.58487747989919" />
<vehicle id="type1_47" type="type1" route="ew" depart="60.963455262424034" />
<vehicle id="type1_48" type="type1" route="es" depart="61.89681680946962" />
<vehicle id="type1_49" type="type1" route="wn" depart="62.27805184430302" />
<vehicle id="type1_50" type="type1" route="sn" depart="68.7538087423259" />
<vehicle id="type1_51" type="type1" route="en" depart="71.47922026489154" />
<vehicle id="type1_52" type="type1" route="es" depart="77.31610484181857" />
<vehicle id="type1_53" type="type1" route="wn" depart="78.85597024830322" />
<vehicle id="type1_54" type="type1" route="nw" depart="78.90262606999461" />
<vehicle id="type1_55" type="type1" route="sn" depart="79.01793055986542" />
<vehicle id="type1_56" type="type1" route="nw" depart="80.12092708159349" />
<vehicle id="type1_57" type="type1" route="wn" depart="80.54963659297078" />
<vehicle id="type1_58" type="type1" route="se" depart="80.68153407703274" />
<vehicle id="type1_59" type="type1" route="nw" depart="82.33632249787868" />
<vehicle id="type1_60" type="type1" route="ns" depart="82.35496051024327" />
<vehicle id="type1_61" type="type1" route="se" depart="85.56481298661404" />
<vehicle id="type1_62" type="type1" route="ne" depart="87.81328433170233" />
<vehicle id="type1_63" type="type1" route="ns" depart="88.46867415902817" />
<vehicle id="type1_64" type="type1" route="ns" depart="89.07765802323568" />
<vehicle id="type1_65" type="type1" route="wn" depart="93.3237178425379" />
<vehicle id="type1_66" type="type1" route="sn" depart="96.5753108675622" />
<vehicle id="type1_67" type="type1" route="se" depart="97.96310972382874" />
<vehicle id="type1_68" type="type1" route="sn" depart="99.338403192956" />
<vehicle id="type1_69" type="type1" route="es" depart="99.38820543661173" />
<vehicle id="type1_70" type="type1" route="ws" depart="100.03080308246894" />
<vehicle id="type1_71" type="type1" route="ew" depart="102.04818582808265" />
<vehicle id="type1_72" type="type1" route="sw" depart="104.78256742817399" />
<vehicle id="type1_73" type="type1" route="en" depart="105.02483037792774" />
<vehicle id="type1_74" type="type1" route="ne" depart="106.10417884649152" />
<vehicle id="type1_75" type="type1" route="we" depart="107.27021621333004" />
<vehicle id="type1_76" type="type1" route="wn" depart="107.51991278554969" />
<vehicle id="type1_77" type="type1" route="sn" depart="108.6070147523816" />
<vehicle id="type1_78" type="type1" route="ns" depart="110.58847926641923" />
<vehicle id="type1_79" type="type1" route="se" depart="110.71482908041494" />
<vehicle id="type1_80" type="type1" route="en" depart="111.91042672574346" />
<vehicle id="type1_81" type="type1" route="ns" depart="114.61305207520017" />
<vehicle id="type1_82" type="type1" route="sw" depart="116.49471890503746" />
<vehicle id="emv_2" type="rescue" route="ns" depart="119.02658389434033" />
<vehicle id="type1_83" type="type1" route="es" depart="120.23518583512363" />
<vehicle id="type1_84" type="type1" route="sn" depart="120.86295869692353" />
<vehicle id="type1_85" type="type1" route="wn" depart="123.12680444454892" />
<vehicle id="emv_3" type="rescue" route="en" depart="124.11086890335855" />
<vehicle id="type1_86" type="type1" route="nw" depart="126.59408080973493" />
<vehicle id="type1_87" type="type1" route="en" depart="126.80779793954343" />
<vehicle id="type1_88" type="type1" route="ns" depart="130.04562862372936" />
<vehicle id="type1_89" type="type1" route="es" depart="131.23164811871794" />
<vehicle id="type1_90" type="type1" route="sn" depart="132.18779334245895" />
<vehicle id="type1_91" type="type1" route="ws" depart="134.42604336471584" />
<vehicle id="type1_92" type="type1" route="ws" depart="135.48718933110484" />
<vehicle id="type1_93" type="type1" route="we" depart="136.90832529319053" />
<vehicle id="type1_94" type="type1" route="en" depart="137.11698389793173" />
<vehicle id="type1_95" type="type1" route="ew" depart="137.78947407859349" />
<vehicle id="type1_96" type="type1" route="we" depart="138.07393207435885" />
<vehicle id="type1_97" type="type1" route="se" depart="138.9956178325069" />
<vehicle id="type1_98" type="type1" route="se" depart="141.99886343641145" />
<vehicle id="type1_99" type="type1" route="we" depart="145.0506344651696" />
<vehicle id="type1_100" type="type1" route="se" depart="146.85201080515355" />
<vehicle id="type1_101" type="type1" route="ne" depart="146.85404449031986" />
<vehicle id="type1_102" type="type1" route="ew" depart="148.2904756265827" />
<vehicle id="type1_103" type="type1" route="en" depart="148.4613778028816" />
<vehicle id="type1_104" type="type1" route="es" depart="150.92360693703213" />
<vehicle id="type1_105" type="type1" route="es" depart="151.9720506851033" />
<vehicle id="type1_106" type="type1" route="sw" depart="152.2584671983343" />
<vehicle id="type1_107" type="type1" route="se" depart="154.14820732847508" />
<vehicle id="type1_108" type="type1" route="ew" depart="154.43161937055234" />
<vehicle id="type1_109" type="type1" route="es" depart="156.8943142957918" />
<vehicle id="type1_110" type="type1" route="sn" depart="158.76344735288885" />
<vehicle id="type1_111" type="type1" route="wn" depart="162.43951589141577" />
<vehicle id="type1_112" type="type1" route="ws" depart="166.0492485719188" />
<vehicle id="type1_113" type="type1" route="ew" depart="167.2234548634693" />
<vehicle id="type1_114" type="type1" route="se" depart="167.27851287023478" />
<vehicle id="type1_115" type="type1" route="nw" depart="167.73050100521655" />
<vehicle id="type1_116" type="type1" route="se" depart="167.9397178053891" />
<vehicle id="type1_117" type="type1" route="ns" depart="168.19020396132615" />
<vehicle id="type1_118" type="type1" route="ws" depart="168.93248985395124" />
<vehicle id="type1_119" type="type1" route="ne" depart="170.11207166704918" />
<vehicle id="type1_120" type="type1" route="we" depart="173.19844749194257" />
<vehicle id="type1_121" type="type1" route="ws" depart="173.58243882105498" />
<vehicle id="type1_122" type="type1" route="ew" depart="175.1191916802812" />
<vehicle id="type1_123" type="type1" route="nw" depart="176.86078347930524" />
<vehicle id="type1_124" type="type1" route="es" depart="177.43509298483588" />
<vehicle id="type1_125" type="type1" route="ne" depart="180.6494110733004" />
<vehicle id="type1_126" type="type1" route="ws" depart="180.73513931888976" />
<vehicle id="type1_127" type="type1" route="se" depart="182.6482635880789" />
<vehicle id="emv_4" type="rescue" route="wn" depart="183.25648934016624" />
<vehicle id="type1_128" type="type1" route="wn" depart="184.2330985446592" />
<vehicle id="type1_129" type="type1" route="en" depart="184.43907695443443" />
<vehicle id="type1_130" type="type1" route="wn" depart="189.80177047462902" />
<vehicle id="type1_131" type="type1" route="wn" depart="193.63651126513832" />
<vehicle id="type1_132" type="type1" route="ew" depart="195.13043256937007" />
<vehicle id="type1_133" type="type1" route="we" depart="196.20465219879605" />
<vehicle id="type1_134" type="type1" route="ne" depart="196.81255498607268" />
<vehicle id="type1_135" type="type1" route="ew" depart="196.89777373272176" />
<vehicle id="type1_136" type="type1" route="se" depart="197.18739144138655" />
<vehicle id="type1_137" type="type1" route="we" depart="197.34378358329974" />
<vehicle id="type1_138" type="type1" route="nw" depart="197.99171806579227" />
<vehicle id="emv_5" type="rescue" route="ew" depart="198.87293047904927" />
<vehicle id="type1_139" type="type1" route="ne" depart="199.23609658220602" />
<vehicle id="type1_140" type="type1" route="sw" depart="203.07076572346367" />
<vehicle id="type1_141" type="type1" route="ew" depart="203.28786102229174" />
<vehicle id="type1_142" type="type1" route="sn" depart="206.17538329989307" />
<vehicle id="type1_143" type="type1" route="ew" depart="206.67360710147594" />
<vehicle id="type1_144" type="type1" route="sn" depart="207.61816594833417" />
<vehicle id="type1_145" type="type1" route="wn" depart="210.35539171718167" />
<vehicle id="emv_6" type="rescue" route="sn" depart="210.81132297414143" />
<vehicle id="type1_146" type="type1" route="nw" depart="212.89808582729074" />
<vehicle id="type1_147" type="type1" route="se" depart="214.79309417930673" />
<vehicle id="type1_148" type="type1" route="ew" depart="216.14643611514947" />
<vehicle id="type1_149" type="type1" route="sw" depart="217.48216509841214" />
<vehicle id="type1_150" type="type1" route="en" depart="217.51767259742687" />
<vehicle id="type1_151" type="type1" route="we" depart="219.4898524934111" />
<vehicle id="type1_152" type="type1" route="nw" depart="219.5176639701326" />
<vehicle id="type1_153" type="type1" route="en" depart="219.65177319664497" />
<vehicle id="type1_154" type="type1" route="ew" depart="220.08116311043193" />
<vehicle id="type1_155" type="type1" route="ne" depart="220.7884874972017" />
<vehicle id="type1_156" type="type1" route="nw" depart="221.17648731763052" />
<vehicle id="type1_157" type="type1" route="en" depart="224.9069966657274" />
<vehicle id="type1_158" type="type1" route="nw" depart="227.66488755077992" />
<vehicle id="type1_159" type="type1" route="wn" depart="229.957643561426" />
<vehicle id="type1_160" type="type1" route="nw" depart="231.30607143740517" />
<vehicle id="type1_161" type="type1" route="ne" depart="231.88156871630943" />
<vehicle id="type1_162" type="type1" route="se" depart="231.89915623849268" />
<vehicle id="type1_163" type="type1" route="en" depart="234.24180810201327" />
<vehicle id="type1_164" type="type1" route="nw" depart="234.65306242992241" />
<vehicle id="type1_165" type="type1" route="sn" depart="235.08249068979126" />
<vehicle id="type1_166" type="type1" route="ew" depart="237.42177928025927" />
<vehicle id="type1_167" type="type1" route="nw" depart="239.95968294954693" />
<vehicle id="type1_168" type="type1" route="nw" depart="243.71315851650067" />
<vehicle id="type1_169" type="type1" route="se" depart="244.23346683034757" />
<vehicle id="type1_170" type="type1" route="we" depart="244.3640370584585" />
<vehicle id="type1_171" type="type1" route="se" depart="246.03876825306335" />
<vehicle id="type1_172" type="type1" route="se" depart="246.45323746280363" />
<vehicle id="type1_173" type="type1" route="ns" depart="247.310857198167" />
<vehicle id="type1_174" type="type1" route="se" depart="254.29154531544583" />
<vehicle id="type1_175" type="type1" route="es" depart="254.51392055394956" />
<vehicle id="type1_176" type="type1" route="sw" depart="254.6327414488596" />
<vehicle id="type1_177" type="type1" route="ns" depart="257.69926594242673" />
<vehicle id="type1_178" type="type1" route="sw" depart="257.8374737510276" />
<vehicle id="type1_179" type="type1" route="wn" depart="258.6701455992118" />
<vehicle id="type1_180" type="type1" route="es" depart="259.2941994038171" />
<vehicle id="type1_181" type="type1" route="nw" depart="260.8058260254162" />
<vehicle id="type1_182" type="type1" route="se" depart="262.11832662731155" />
<vehicle id="type1_183" type="type1" route="ns" depart="264.9199184015449" />
<vehicle id="type1_184" type="type1" route="sn" depart="269.0815119015678" />
<vehicle id="type1_185" type="type1" route="se" depart="271.02088559177275" />
<vehicle id="type1_186" type="type1" route="es" depart="273.07906973154843" />
<vehicle id="type1_187" type="type1" route="en" depart="273.12025704605765" />
<vehicle id="type1_188" type="type1" route="sw" depart="273.60903084097254" />
<vehicle id="type1_189" type="type1" route="ns" depart="274.03369934247854" />
<vehicle id="type1_190" type="type1" route="ne" depart="274.078618126259" />
<vehicle id="type1_191" type="type1" route="se" depart="281.3502932761971" />
<vehicle id="type1_192" type="type1" route="nw" depart="281.7306880251707" />
<vehicle id="type1_193" type="type1" route="ew" depart="282.6493594578423" />
<vehicle id="emv_7" type="rescue" route="sn" depart="286.1706168633951" />
<vehicle id="type1_194" type="type1" route="nw" depart="286.5332290811525" />
<vehicle id="type1_195" type="type1" route="nw" depart="286.72541189736944" />
<vehicle id="type1_196" type="type1" route="en" depart="288.5408315401949" />
<vehicle id="type1_197" type="type1" route="en" depart="289.2325855878532" />
<vehicle id="type1_198" type="type1" route="sw" depart="290.34202749313016" />
<vehicle id="type1_199" type="type1" route="se" depart="291.96707843045016" />
<vehicle id="type1_200" type="type1" route="ne" depart="292.0159077080604" />
<vehicle id="type1_201" type="type1" route="ns" depart="293.33541420338827" />
<vehicle id="type1_202" type="type1" route="ne" depart="294.85824937463315" />
<vehicle id="type1_203" type="type1" route="nw" depart="297.47292486402586" />
<vehicle id="type1_204" type="type1" route="se" depart="297.67867468591544" />
<vehicle id="type1_205" type="type1" route="we" depart="297.8407695320793" />
<vehicle id="type1_206" type="type1" route="we" depart="298.87277771925903" />
<vehicle id="type1_207" type="type1" route="se" depart="299.3644509338408" />
<vehicle id="type1_208" type="type1" route="sw" depart="303.10128121911697" />
<vehicle id="type1_209" type="type1" route="ws" depart="307.4485806532718" />
<vehicle id="type1_210" type="type1" route="sn" depart="309.4846000506092" />
<vehicle id="type1_211" type="type1" route="nw" depart="310.44308801210445" />
<vehicle id="type1_212" type="type1" route="we" depart="311.42861676728904" />
<vehicle id="type1_213" type="type1" route="ws" depart="312.1882804993398" />
<vehicle id="type1_214" type="type1" route="we" depart="312.9305472152498" />
<vehicle id="type1_215" type="type1" route="es" depart="313.10672302718496" />
<vehicle id="type1_216" type="type1" route="ns" depart="318.8618121558519" />
<vehicle id="type1_217" type="type1" route="nw" depart="320.955244147152" />
<vehicle id="type1_218" type="type1" route="sw" depart="321.30368394333055" />
<vehicle id="type1_219" type="type1" route="ns" depart="324.3580308051601" />
<vehicle id="type1_220" type="type1" route="es" depart="325.10413176024883" />
<vehicle id="type1_221" type="type1" route="ew" depart="325.3389676047681" />
<vehicle id="type1_222" type="type1" route="wn" depart="327.1970615219721" />
<vehicle id="type1_223" type="type1" route="sw" depart="329.6286983873975" />
<vehicle id="type1_224" type="type1" route="sw" depart="334.50816869327195" />
<vehicle id="type1_225" type="type1" route="ne" depart="337.6319030604212" />
<vehicle id="type1_226" type="type1" route="wn" depart="340.3984118470214" />
<vehicle id="type1_227" type="type1" route="en" depart="341.5975468411101" />
<vehicle id="type1_228" type="type1" route="en" depart="342.52194731972094" />
<vehicle id="type1_229" type="type1" route="ws" depart="347.4133674018319" />
<vehicle id="type1_230" type="type1" route="nw" depart="347.75003748812213" />
<vehicle id="type1_231" type="type1" route="ew" depart="359.4824881249997" />
<vehicle id="type1_232" type="type1" route="ws" depart="362.01434034278384" />
<vehicle id="type1_233" type="type1" route="es" depart="362.7292253666645" />
<vehicle id="type1_234" type="type1" route="sn" depart="362.7900699096535" />
<vehicle id="type1_235" type="type1" route="we" depart="364.1211055339088" />
<vehicle id="type1_236" type="type1" route="se" depart="365.15839589262947" />
<vehicle id="type1_237" type="type1" route="sn" depart="365.76573919129453" />
<vehicle id="type1_238" type="type1" route="ws" depart="365.8001954278792" />
<vehicle id="type1_239" type="type1" route="nw" depart="365.8111395911177" />
<vehicle id="type1_240" type="type1" route="we" depart="366.2110220573863" />
<vehicle id="type1_241" type="type1" route="ne" depart="367.7741058967652" />
<vehicle id="type1_242" type="type1" route="se" depart="369.1944852004003" />
<vehicle id="type1_243" type="type1" route="ws" depart="370.8270480664166" />
<vehicle id="type1_244" type="type1" route="en" depart="373.63813478642726" />
<vehicle id="type1_245" type="type1" route="ew" depart="374.56562400633436" />
<vehicle id="type1_246" type="type1" route="wn" depart="375.7407491193044" />
<vehicle id="type1_247" type="type1" route="sw" depart="377.5422438114998" />
<vehicle id="type1_248" type="type1" route="we" depart="379.37967168401747" />
<vehicle id="type1_249" type="type1" route="ws" depart="379.45232201323347" />
<vehicle id="type1_250" type="type1" route="nw" depart="379.67066571510634" />
<vehicle id="type1_251" type="type1" route="ne" depart="380.92006108437596" />
<vehicle id="type1_252" type="type1" route="sw" depart="382.26734904343084" />
<vehicle id="type1_253" type="type1" route="se" depart="383.52775040010033" />
<vehicle id="type1_254" type="type1" route="ns" depart="384.7072999996643" />
<vehicle id="type1_255" type="type1" route="ws" depart="384.840068076" />
<vehicle id="emv_8" type="rescue" route="ne" depart="385.3882711242924" />
<vehicle id="type1_256" type="type1" route="ew" depart="385.5501176156087" />
<vehicle id="type1_257" type="type1" route="we" depart="387.08986274164727" />
<vehicle id="type1_258" type="type1" route="wn" depart="387.3044875802399" />
<vehicle id="type1_259" type="type1" route="ws" depart="387.495187316605" />
<vehicle id="type1_260" type="type1" route="ns" depart="391.5765789112687" />
<vehicle id="type1_261" type="type1" route="ew" depart="391.7126455025866" />
<vehicle id="type1_262" type="type1" route="se" depart="393.10755244587267" />
<vehicle id="type1_263" type="type1" route="ws" depart="394.83034167625516" />
<vehicle id="type1_264" type="type1" route="we" depart="395.3040741084751" />
<vehicle id="type1_265" type="type1" route="ws" depart="395.70367501856606" />
<vehicle id="type1_266" type="type1" route="we" depart="396.5424472095866" />
<vehicle id="type1_267" type="type1" route="en" depart="397.34896267221086" />
<vehicle id="type1_268" type="type1" route="se" depart="398.9102944313277" />
<vehicle id="type1_269" type="type1" route="sw" depart="400.3248434913026" />
<vehicle id="type1_270" type="type1" route="we" depart="400.75775749182475" />
<vehicle id="type1_271" type="type1" route="we" depart="401.5318970922732" />
<vehicle id="emv_9" type="rescue" route="en" depart="402.046025020443" />
<vehicle id="type1_272" type="type1" route="sw" depart="402.12989678021944" />
<vehicle id="type1_273" type="type1" route="nw" depart="403.8779680899504" />
<vehicle id="type1_274" type="type1" route="wn" depart="404.1395696799693" />
<vehicle id="type1_275" type="type1" route="ns" depart="404.9018597753859" />
<vehicle id="type1_276" type="type1" route="sn" depart="405.20024336534857" />
<vehicle id="type1_277" type="type1" route="en" depart="406.46613345155924" />
<vehicle id="type1_278" type="type1" route="sn" depart="409.36638358137577" />
<vehicle id="type1_279" type="type1" route="nw" depart="410.62658360235247" />
<vehicle id="type1_280" type="type1" route="we" depart="411.92856426774836" />
<vehicle id="type1_281" type="type1" route="ew" depart="412.13853421770887" />
<vehicle id="type1_282" type="type1" route="es" depart="413.34096550108603" />
<vehicle id="type1_283" type="type1" route="sn" depart="414.8167137218077" />
<vehicle id="type1_284" type="type1" route="ew" depart="418.1798862864094" />
<vehicle id="type1_285" type="type1" route="we" depart="418.3432625333131" />
<vehicle id="type1_286" type="type1" route="ws" depart="421.188518815911" />
<vehicle id="type1_287" type="type1" route="ne" depart="421.70775133038325" />
<vehicle id="type1_288" type="type1" route="es" depart="423.87696948229024" />
<vehicle id="type1_289" type="type1" route="ns" depart="426.7419560099821" />
<vehicle id="type1_290" type="type1" route="se" depart="429.71908945430835" />
<vehicle id="type1_291" type="type1" route="ns" depart="430.36912695714653" />
</routes>