<routes>
            <vType id="type1" accel="0.8" decel="4.5" sigma="0.5" length="5" maxSpeed="70"/>
            <vType id="rescue" vClass="emergency" speedFactor="1.5" guiShape="emergency">
                <param key="has.bluelight.device" value="true"/>
            </vType>
            <route id="ne" edges="ni eo"/>
            <route id="ns" edges="ni so"/>
            <route id="nw" edges="ni wo"/>
            <route id="en" edges="ei no"/>
            <route id="es" edges="ei so"/>
            <route id="ew" edges="ei wo"/>
            <route id="sn" edges="si no"/>
            <route id="se" edges="si eo"/>
            <route id="sw" edges="si wo"/>
            <route id="wn" edges="wi no"/>
            <route id="we" edges="wi eo"/>
            <route id="ws" edges="wi so"/>
        <vehicle id="type1_1" type="type1" route="wn" depart="0.5852053382342206" />
<vehicle id="type1_2" type="type1" route="sn" depart="6.141838794946017" />
<vehicle id="type1_3" type="type1" route="en" depart="7.270302033591505" />
<vehicle id="type1_4" type="type1" route="sn" depart="10.219725365881144" />
<vehicle id="type1_5" type="type1" route="we" depart="11.038577899398403" />
<vehicle id="type1_6" type="type1" route="ne" depart="12.163282043818835" />
<vehicle id="type1_7" type="type1" route="ew" depart="12.795031517755751" />
<vehicle id="emv_1" type="rescue" route="ws" depart="14.690528729440633" />
<vehicle id="type1_8" type="type1" route="ne" depart="14.867154672899979" />
<vehicle id="type1_9" type="type1" route="nw" depart="16.55628858349756" />
<vehicle id="type1_10" type="type1" route="se" depart="19.475044175326047" />
<vehicle id="type1_11" type="type1" route="we" depart="19.665181966924525" />
<vehicle id="type1_12" type="type1" route="nw" depart="23.105766029103947" />
<vehicle id="type1_13" type="type1" route="we" depart="23.31789718522733" />
<vehicle id="type1_14" type="type1" route="sn" depart="27.45559522190446" />
<vehicle id="emv_2" type="rescue" route="en" depart="28.194067357006343" />
<vehicle id="type1_15" type="type1" route="wn" depart="28.864053226613237" />
<vehicle id="type1_16" type="type1" route="wn" depart="31.706710207891952" />
<vehicle id="type1_17" type="type1" route="nw" depart="33.004206922463" />
<vehicle id="type1_18" type="type1" route="es" depart="34.72176062574192" />
<vehicle id="type1_19" type="type1" route="en" depart="40.832224667888845" />
<vehicle id="type1_20" type="type1" route="sw" depart="41.03665466536698" />
<vehicle id="type1_21" type="type1" route="sn" depart="41.589948610641095" />
<vehicle id="type1_22" type="type1" route="wn" depart="41.70412658898084" />
<vehicle id="type1_23" type="type1" route="sw" depart="42.02150276446544" />
<vehicle id="emv_3" type="rescue" route="en" depart="42.19554114241909" />
<vehicle id="type1_24" type="type1" route="en" depart="42.55081281906592" />
<vehicle id="type1_25" type="type1" route="sn" depart="43.2506306283117" />
<vehicle id="type1_26" type="type1" route="wn" depart="43.2992614999589" />
<vehicle id="type1_27" type="type1" route="sw" depart="43.78397056694578" />
<vehicle id="type1_28" type="type1" route="ns" depart="46.139684748541974" />
<vehicle id="type1_29" type="type1" route="wn" depart="46.7444341860021" />
<vehicle id="type1_30" type="type1" route="wn" depart="46.96072651233964" />
<vehicle id="type1_31" type="type1" route="ns" depart="51.621394292798016" />
<vehicle id="type1_32" type="type1" route="en" depart="51.97929299017758" />
<vehicle id="emv_4" type="rescue" route="se" depart="54.4916060660145" />
<vehicle id="type1_33" type="type1" route="sn" depart="55.89759362727063" />
<vehicle id="type1_34" type="type1" route="es" depart="57.47267818789908" />
<vehicle id="type1_35" type="type1" route="sw" depart="57.926117034969174" />
<vehicle id="type1_36" type="type1" route="ns" depart="58.76753024729821" />
<vehicle id="type1_37" type="type1" route="es" depart="59.010850441122905" />
<vehicle id="type1_38" type="type1" route="we" depart="62.36722098690916" />
<vehicle id="type1_39" type="type1" route="nw" depart="62.54054407334066" />
<vehicle id="type1_40" type="type1" route="sn" depart="67.56852379059845" />
<vehicle id="type1_41" type="type1" route="ew" depart="67.90197465102935" />
<vehicle id="type1_42" type="type1" route="ne" depart="69.29884817608435" />
<vehicle id="type1_43" type="type1" route="ne" depart="69.55272803718886" />
<vehicle id="type1_44" type="type1" route="ew" depart="70.61728538509918" />
<vehicle id="type1_45" type="type1" route="es" depart="72.73426124084762" />
<vehicle id="type1_46" type="type1" route="wn" depart="73.08282505159636" />
<vehicle id="type1_47" type="type1" route="sn" depart="73.69838820441005" />
<vehicle id="type1_48" type="type1" route="en" depart="75.76744373826097" />
<vehicle id="type1_49" type="type1" route="es" depart="76.01240469066059" />
<vehicle id="type1_50" type="type1" route="wn" depart="76.85600324643528" />
<vehicle id="type1_51" type="type1" route="nw" depart="77.40210186908091" />
<vehicle id="type1_52" type="type1" route="sn" depart="78.09172062468541" />
<vehicle id="type1_53" type="type1" route="nw" depart="83.53900203391254" />
<vehicle id="type1_54" type="type1" route="wn" depart="84.60076838708842" />
<vehicle id="type1_55" type="type1" route="se" depart="84.60246648922869" />
<vehicle id="type1_56" type="type1" route="nw" depart="87.04439733623312" />
<vehicle id="emv_5" type="rescue" route="ns" depart="88.64043614259393" />
<vehicle id="type1_57" type="type1" route="se" depart="88.90155238387736" />
<vehicle id="type1_58" type="type1" route="ne" depart="89.72868499855309" />
<vehicle id="type1_59" type="type1" route="ns" depart="90.43825179636343" />
<vehicle id="type1_60" type="type1" route="ns" depart="91.98205291609104" />
<vehicle id="type1_61" type="type1" route="wn" depart="98.0933837299492" />
<vehicle id="type1_62" type="type1" route="sn" depart="101.98131125872308" />
<vehicle id="type1_63" type="type1" route="se" depart="114.3608718171215" />
<vehicle id="type1_64" type="type1" route="sn" depart="116.23110647614729" />
<vehicle id="type1_65" type="type1" route="es" depart="119.60469182199715" />
<vehicle id="type1_66" type="type1" route="ws" depart="122.15487286647041" />
<vehicle id="type1_67" type="type1" route="ew" depart="122.15616794231867" />
<vehicle id="type1_68" type="type1" route="sw" depart="124.06412963370033" />
<vehicle id="type1_69" type="type1" route="en" depart="124.93501550525879" />
<vehicle id="type1_70" type="type1" route="ne" depart="129.61309837159752" />
<vehicle id="type1_71" type="type1" route="we" depart="130.78037082613008" />
<vehicle id="type1_72" type="type1" route="wn" depart="135.4596422956018" />
<vehicle id="type1_73" type="type1" route="sn" depart="138.3972992927172" />
<vehicle id="emv_6" type="rescue" route="ns" depart="138.46306244083672" />
<vehicle id="type1_74" type="type1" route="se" depart="140.91385283570247" />
<vehicle id="type1_75" type="type1" route="en" depart="143.07159155589147" />
<vehicle id="type1_76" type="type1" route="ns" depart="143.81272794790215" />
<vehicle id="type1_77" type="type1" route="sw" depart="146.70313619783275" />
<vehicle id="emv_7" type="rescue" route="ns" depart="151.17957094215407" />
<vehicle id="type1_78" type="type1" route="es" depart="151.81652934546256" />
<vehicle id="type1_79" type="type1" route="sn" depart="153.10232311093753" />
<vehicle id="type1_80" type="type1" route="wn" depart="155.23523971664738" />
<vehicle id="emv_8" type="rescue" route="en" depart="155.56984872160973" />
<vehicle id="type1_81" type="type1" route="nw" depart="157.0445194950563" />
<vehicle id="type1_82" type="type1" route="en" depart="157.169570176444" />
<vehicle id="type1_83" type="type1" route="ns" depart="157.20158023190024" />
<vehicle id="type1_84" type="type1" route="es" depart="157.79812073307895" />
<vehicle id="type1_85" type="type1" route="sn" depart="157.82004390312156" />
<vehicle id="type1_86" type="type1" route="ws" depart="160.48841744472" />
<vehicle id="type1_87" type="type1" route="ws" depart="160.57220087173886" />
<vehicle id="type1_88" type="type1" route="we" depart="161.02698211632213" />
<vehicle id="type1_89" type="type1" route="en" depart="161.7929388174092" />
<vehicle id="type1_90" type="type1" route="ew" depart="162.7172716412425" />
<vehicle id="type1_91" type="type1" route="we" depart="168.23930569448973" />
<vehicle id="type1_92" type="type1" route="se" depart="171.03808375062513" />
<vehicle id="type1_93" type="type1" route="se" depart="171.6285669210908" />
<vehicle id="type1_94" type="type1" route="we" depart="172.7284039000047" />
<vehicle id="type1_95" type="type1" route="se" depart="173.1009758927412" />
<vehicle id="type1_96" type="type1" route="ne" depart="174.50734165459903" />
<vehicle id="type1_97" type="type1" route="ew" depart="175.17115650130475" />
<vehicle id="type1_98" type="type1" route="en" depart="176.32347363159016" />
<vehicle id="type1_99" type="type1" route="es" depart="177.46615101604291" />
<vehicle id="type1_100" type="type1" route="es" depart="180.5564419026424" />
<vehicle id="type1_101" type="type1" route="sw" depart="180.69994172778146" />
<vehicle id="type1_102" type="type1" route="se" depart="181.63872010569423" />
<vehicle id="type1_103" type="type1" route="ew" depart="183.627532145374" />
<vehicle id="type1_104" type="type1" route="es" depart="183.85069323596895" />
<vehicle id="type1_105" type="type1" route="sn" depart="190.70534858419927" />
<vehicle id="type1_106" type="type1" route="wn" depart="191.95115534917298" />
<vehicle id="type1_107" type="type1" route="ws" depart="193.40345040179508" />
<vehicle id="type1_108" type="type1" route="ew" depart="193.59185258233043" />
<vehicle id="type1_109" type="type1" route="se" depart="196.78118468932354" />
<vehicle id="emv_9" type="rescue" route="nw" depart="197.54607812007464" />
<vehicle id="type1_110" type="type1" route="se" depart="199.76926797796966" />
<vehicle id="type1_111" type="type1" route="ns" depart="200.4012124436073" />
<vehicle id="type1_112" type="type1" route="ws" depart="206.3789933566731" />
<vehicle id="type1_113" type="type1" route="ne" depart="206.49902665704957" />
<vehicle id="type1_114" type="type1" route="we" depart="206.5109188612107" />
<vehicle id="type1_115" type="type1" route="ws" depart="207.25102370407012" />
<vehicle id="type1_116" type="type1" route="ew" depart="207.40020628630498" />
<vehicle id="type1_117" type="type1" route="nw" depart="207.6077711291458" />
<vehicle id="type1_118" type="type1" route="es" depart="208.08106148488963" />
<vehicle id="type1_119" type="type1" route="ne" depart="208.16305494375118" />
<vehicle id="type1_120" type="type1" route="ws" depart="208.88675921190162" />
<vehicle id="type1_121" type="type1" route="se" depart="212.40528624921873" />
<vehicle id="emv_10" type="rescue" route="wn" depart="213.4208519976417" />
<vehicle id="type1_122" type="type1" route="wn" depart="214.3630767009747" />
<vehicle id="type1_123" type="type1" route="en" depart="214.89490832557206" />
<vehicle id="type1_124" type="type1" route="wn" depart="215.41000133003615" />
<vehicle id="type1_125" type="type1" route="wn" depart="218.05832564496643" />
<vehicle id="type1_126" type="type1" route="ew" depart="220.18750416562793" />
<vehicle id="type1_127" type="type1" route="we" depart="222.87490962207946" />
<vehicle id="type1_128" type="type1" route="ne" depart="223.72507688763037" />
<vehicle id="type1_129" type="type1" route="ew" depart="224.06134011947276" />
<vehicle id="type1_130" type="type1" route="se" depart="224.7691093584617" />
<vehicle id="type1_131" type="type1" route="we" depart="226.19369128820037" />
<vehicle id="type1_132" type="type1" route="nw" depart="229.28663951094387" />
<vehicle id="emv_11" type="rescue" route="ew" depart="230.67427058426944" />
<vehicle id="type1_133" type="type1" route="ne" depart="231.40207591406445" />
<vehicle id="type1_134" type="type1" route="sw" depart="231.80570569286618" />
<vehicle id="type1_135" type="type1" route="ew" depart="233.24794536707432" />
<vehicle id="type1_136" type="type1" route="sn" depart="234.93467769297635" />
<vehicle id="type1_137" type="type1" route="ew" depart="236.36574262570898" />
<vehicle id="type1_138" type="type1" route="sn" depart="236.9487330487965" />
<vehicle id="type1_139" type="type1" route="wn" depart="237.55884760257592" />
<vehicle id="emv_12" type="rescue" route="sn" depart="237.7188180611761" />
<vehicle id="type1_140" type="type1" route="nw" depart="237.83399363463857" />
<vehicle id="type1_141" type="type1" route="se" depart="237.89274542852027" />
<vehicle id="emv_13" type="rescue" route="ew" depart="238.90457256447093" />
<vehicle id="type1_142" type="type1" route="sw" depart="239.62101495789457" />
<vehicle id="type1_143" type="type1" route="en" depart="240.46990362680265" />
<vehicle id="type1_144" type="type1" route="we" depart="242.48946753873287" />
<vehicle id="type1_145" type="type1" route="nw" depart="244.072397562518" />
<vehicle id="type1_146" type="type1" route="en" depart="244.57748931367422" />
<vehicle id="type1_147" type="type1" route="ew" depart="245.60078945245363" />
<vehicle id="type1_148" type="type1" route="ne" depart="246.26927915937404" />
<vehicle id="type1_149" type="type1" route="nw" depart="247.21254504108018" />
<vehicle id="type1_150" type="type1" route="en" depart="248.39045574675455" />
<vehicle id="type1_151" type="type1" route="nw" depart="250.1337198466294" />
<vehicle id="type1_152" type="type1" route="wn" depart="250.64208643745215" />
<vehicle id="type1_153" type="type1" route="nw" depart="250.90203310571107" />
<vehicle id="type1_154" type="type1" route="ne" depart="252.42809134298312" />
<vehicle id="type1_155" type="type1" route="se" depart="252.97506498019726" />
<vehicle id="type1_156" type="type1" route="en" depart="254.67887394939518" />
<vehicle id="type1_157" type="type1" route="nw" depart="256.59725767340484" />
<vehicle id="type1_158" type="type1" route="sn" depart="257.41206605271014" />
<vehicle id="type1_159" type="type1" route="ew" depart="258.49435941205434" />
<vehicle id="type1_160" type="type1" route="nw" depart="259.05479881030544" />
<vehicle id="type1_161" type="type1" route="nw" depart="262.84455185803904" />
<vehicle id="type1_162" type="type1" route="se" depart="263.1522459701647" />
<vehicle id="type1_163" type="type1" route="we" depart="267.7827861944402" />
<vehicle id="emv_14" type="rescue" route="se" depart="273.4223210676496" />
<vehicle id="emv_15" type="rescue" route="se" depart="274.49577173898706" />
<vehicle id="type1_164" type="type1" route="ns" depart="274.8432692061811" />
<vehicle id="type1_165" type="type1" route="se" depart="275.65273191567206" />
<vehicle id="type1_166" type="type1" route="es" depart="276.7407430737668" />
<vehicle id="type1_167" type="type1" route="sw" depart="280.8152467338006" />
<vehicle id="type1_168" type="type1" route="ns" depart="281.29365012305686" />
<vehicle id="type1_169" type="type1" route="sw" depart="283.91306950835934" />
<vehicle id="type1_170" type="type1" route="wn" depart="284.2489080536781" />
<vehicle id="type1_171" type="type1" route="es" depart="285.7545795577349" />
<vehicle id="emv_16" type="rescue" route="nw" depart="286.4323748580984" />
<vehicle id="type1_172" type="type1" route="se" depart="289.7966966271547" />
<vehicle id="type1_173" type="type1" route="ns" depart="290.5616548671137" />
<vehicle id="type1_174" type="type1" route="sn" depart="292.53716138445947" />
<vehicle id="type1_175" type="type1" route="se" depart="293.53215180683475" />
<vehicle id="type1_176" type="type1" route="es" depart="294.11029813177475" />
<vehicle id="type1_177" type="type1" route="en" depart="294.68886620481436" />
<vehicle id="type1_178" type="type1" route="sw" depart="295.05652289013716" />
<vehicle id="type1_179" type="type1" route="ns" depart="296.29367470310467" />
<vehicle id="type1_180" type="type1" route="ne" depart="296.82618908560534" />
<vehicle id="type1_181" type="type1" route="se" depart="297.54247166250104" />
<vehicle id="type1_182" type="type1" route="nw" depart="297.9554251354632" />
<vehicle id="type1_183" type="type1" route="ew" depart="302.21173140041594" />
<vehicle id="emv_17" type="rescue" route="sn" depart="303.1831156851283" />
<vehicle id="type1_184" type="type1" route="nw" depart="304.1261616344307" />
<vehicle id="type1_185" type="type1" route="nw" depart="307.35226788789595" />
<vehicle id="type1_186" type="type1" route="en" depart="307.5250618840984" />
<vehicle id="type1_187" type="type1" route="en" depart="308.5851414528157" />
<vehicle id="type1_188" type="type1" route="sw" depart="308.8696802776902" />
<vehicle id="type1_189" type="type1" route="se" depart="309.85192449503694" />
<vehicle id="type1_190" type="type1" route="ne" depart="310.6237341211096" />
<vehicle id="type1_191" type="type1" route="ns" depart="312.6392504590799" />
<vehicle id="type1_192" type="type1" route="ne" depart="315.1936728038093" />
<vehicle id="type1_193" type="type1" route="nw" depart="318.6765516458995" />
<vehicle id="type1_194" type="type1" route="se" depart="320.4901021392038" />
<vehicle id="type1_195" type="type1" route="we" depart="320.6451629589124" />
<vehicle id="type1_196" type="type1" route="we" depart="321.12679528618236" />
<vehicle id="type1_197" type="type1" route="se" depart="323.1452703966607" />
<vehicle id="type1_198" type="type1" route="sw" depart="323.57956229721265" />
<vehicle id="type1_199" type="type1" route="ws" depart="323.8412121872047" />
<vehicle id="type1_200" type="type1" route="sn" depart="323.86462451867783" />
<vehicle id="type1_201" type="type1" route="nw" depart="328.19493674836565" />
<vehicle id="type1_202" type="type1" route="we" depart="329.20474319505394" />
<vehicle id="type1_203" type="type1" route="ws" depart="330.4577670227828" />
<vehicle id="type1_204" type="type1" route="we" depart="332.27266819905486" />
<vehicle id="type1_205" type="type1" route="es" depart="336.10448899302156" />
<vehicle id="type1_206" type="type1" route="ns" depart="337.8285082104783" />
<vehicle id="type1_207" type="type1" route="nw" depart="337.87366437696846" />
<vehicle id="type1_208" type="type1" route="sw" depart="340.5597606590233" />
<vehicle id="type1_209" type="type1" route="ns" depart="342.60915716450467" />
<vehicle id="type1_210" type="type1" route="es" depart="343.1440077286515" />
<vehicle id="type1_211" type="type1" route="ew" depart="344.6306283544636" />
<vehicle id="type1_212" type="type1" route="wn" depart="345.28502684728136" />
<vehicle id="type1_213" type="type1" route="sw" depart="347.92074847880446" />
<vehicle id="type1_214" type="type1" route="sw" depart="349.5919293749307" />
<vehicle id="type1_215" type="type1" route="ne" depart="349.8768834163769" />
<vehicle id="type1_216" type="type1" route="wn" depart="351.92701427906906" />
<vehicle id="type1_217" type="type1" route="en" depart="352.1824968182927" />
<vehicle id="type1_218" type="type1" route="en" depart="352.8340680361516" />
<vehicle id="type1_219" type="type1" route="ws" depart="354.55997058180424" />
<vehicle id="type1_220" type="type1" route="nw" depart="358.0836170034826" />
<vehicle id="type1_221" type="type1" route="ew" depart="359.3989503371615" />
<vehicle id="type1_222" type="type1" route="ws" depart="360.75645769813906" />
<vehicle id="type1_223" type="type1" route="es" depart="364.3626864184373" />
<vehicle id="type1_224" type="type1" route="sn" depart="364.5898262293435" />
<vehicle id="type1_225" type="type1" route="we" depart="366.85222696679585" />
<vehicle id="type1_226" type="type1" route="se" depart="369.7006801102332" />
<vehicle id="type1_227" type="type1" route="sn" depart="373.79434024311104" />
<vehicle id="type1_228" type="type1" route="ws" depart="378.23195238315174" />
<vehicle id="type1_229" type="type1" route="nw" depart="378.94166930804556" />
<vehicle id="type1_230" type="type1" route="we" depart="379.131214187961" />
<vehicle id="type1_231" type="type1" route="ne" depart="379.3596277955741" />
<vehicle id="type1_232" type="type1" route="se" depart="380.40448436559336" />
<vehicle id="type1_233" type="type1" route="ws" depart="383.9834377973147" />
<vehicle id="type1_234" type="type1" route="en" depart="385.37279782174943" />
<vehicle id="type1_235" type="type1" route="ew" depart="385.4426298898773" />
<vehicle id="type1_236" type="type1" route="wn" depart="386.0159511085608" />
<vehicle id="type1_237" type="type1" route="sw" depart="387.50265169481065" />
<vehicle id="emv_18" type="rescue" route="we" depart="388.2559774584347" />
<vehicle id="type1_238" type="type1" route="ws" depart="388.9311136622483" />
<vehicle id="type1_239" type="type1" route="nw" depart="389.1018340443022" />
<vehicle id="type1_240" type="type1" route="ne" depart="389.43936844734395" />
<vehicle id="type1_241" type="type1" route="sw" depart="389.4447083412398" />
<vehicle id="type1_242" type="type1" route="se" depart="390.4781074286172" />
<vehicle id="type1_243" type="type1" route="ns" depart="390.7811009526783" />
<vehicle id="type1_244" type="type1" route="ws" depart="391.5795809203943" />
<vehicle id="emv_19" type="rescue" route="ne" depart="393.77124748259206" />
<vehicle id="type1_245" type="type1" route="ew" depart="399.2534120932013" />
<vehicle id="type1_246" type="type1" route="we" depart="401.8242406376562" />
<vehicle id="type1_247" type="type1" route="wn" depart="402.3209613525918" />
<vehicle id="type1_248" type="type1" route="ws" depart="404.40649327098913" />
<vehicle id="type1_249" type="type1" route="ns" depart="404.60869878691597" />
<vehicle id="type1_250" type="type1" route="ew" depart="404.98893655716125" />
<vehicle id="type1_251" type="type1" route="se" depart="406.88581353531225" />
<vehicle id="type1_252" type="type1" route="ws" depart="406.98471946635664" />
<vehicle id="type1_253" type="type1" route="we" depart="407.87049872549153" />
<vehicle id="type1_254" type="type1" route="ws" depart="412.3772116979267" />
<vehicle id="emv_20" type="rescue" route="we" depart="413.07620819130256" />
<vehicle id="type1_255" type="type1" route="en" depart="413.50953118664864" />
<vehicle id="type1_256" type="type1" route="se" depart="414.067033512043" />
<vehicle id="type1_257" type="type1" route="sw" depart="414.6263765710918" />
<vehicle id="type1_258" type="type1" route="we" depart="417.91428266468887" />
<vehicle id="type1_259" type="type1" route="we" depart="424.1145189051535" />
<vehicle id="emv_21" type="rescue" route="en" depart="424.94034481341805" />
<vehicle id="type1_260" type="type1" route="sw" depart="425.2767641580003" />
<vehicle id="type1_261" type="type1" route="nw" depart="425.36650620954134" />
<vehicle id="type1_262" type="type1" route="wn" depart="427.28551372779594" />
<vehicle id="type1_263" type="type1" route="ns" depart="429.3104712474259" />
<vehicle id="type1_264" type="type1" route="sn" depart="430.06678767036095" />
<vehicle id="type1_265" type="type1" route="en" depart="430.7102466962881" />
<vehicle id="type1_266" type="type1" route="sn" depart="433.59223262061107" />
<vehicle id="type1_267" type="type1" route="nw" depart="433.7314366983452" />
<vehicle id="type1_268" type="type1" route="we" depart="437.81401353413156" />
<vehicle id="type1_269" type="type1" route="ew" depart="437.9947021379439" />
<vehicle id="type1_270" type="type1" route="es" depart="439.1825655615784" />
<vehicle id="type1_271" type="type1" route="sn" depart="439.85720973781906" />
<vehicle id="type1_272" type="type1" route="ew" depart="439.87415347496506" />
<vehicle id="type1_273" type="type1" route="we" depart="441.3055836507699" />
<vehicle id="type1_274" type="type1" route="ws" depart="444.3526439549378" />
<vehicle id="type1_275" type="type1" route="ne" depart="445.8801767127859" />
<vehicle id="type1_276" type="type1" route="es" depart="446.0026579818045" />
<vehicle id="type1_277" type="type1" route="ns" depart="446.57532947048475" />
<vehicle id="type1_278" type="type1" route="se" depart="446.92175364234987" />
<vehicle id="type1_279" type="type1" route="ns" depart="447.7372797292422" />
</routes>