<routes>
            <vType id="type1" accel="0.8" decel="4.5" sigma="0.5" length="5" maxSpeed="70"/>
            <vType id="rescue" vClass="emergency" speedFactor="1.5" guiShape="emergency">
                <param key="has.bluelight.device" value="true"/>
            </vType>
            <route id="ne" edges="ni eo"/>
            <route id="ns" edges="ni so"/>
            <route id="nw" edges="ni wo"/>
            <route id="en" edges="ei no"/>
            <route id="es" edges="ei so"/>
            <route id="ew" edges="ei wo"/>
            <route id="sn" edges="si no"/>
            <route id="se" edges="si eo"/>
            <route id="sw" edges="si wo"/>
            <route id="wn" edges="wi no"/>
            <route id="we" edges="wi eo"/>
            <route id="ws" edges="wi so"/>
        
            <personFlow id="p_sn" begin="0" end="300" period="50">
                <walk route="sn"/>
            </personFlow>
                         
            <personFlow id="p_we" begin="0" end="300" period="50">
                <walk route="we"/>
            </personFlow>
                         
            <personFlow id="p_ns" begin="0" end="300" period="50">
                <walk route="ns"/>
            </personFlow>
                         
            <personFlow id="p_ew" begin="0" end="300" period="50">
                <walk route="ew"/>
            </personFlow>
                         <vehicle id="type1_1" type="type1" route="wn" depart="0.004551136396037587" />
<vehicle id="type1_2" type="type1" route="sn" depart="0.32471546095415876" />
<vehicle id="type1_3" type="type1" route="en" depart="1.7049506885432903" />
<vehicle id="type1_4" type="type1" route="sn" depart="2.47475317910877" />
<vehicle id="type1_5" type="type1" route="we" depart="5.132054743346913" />
<vehicle id="type1_6" type="type1" route="ne" depart="7.527330772645167" />
<vehicle id="type1_7" type="type1" route="ew" depart="9.555096671890487" />
<vehicle id="emv_1" type="rescue" route="ws" depart="10.41354028336749" />
<vehicle id="type1_8" type="type1" route="ne" depart="11.135683782858901" />
<vehicle id="type1_9" type="type1" route="nw" depart="11.436172337911358" />
<vehicle id="type1_10" type="type1" route="se" depart="13.367510887201503" />
<vehicle id="type1_11" type="type1" route="we" depart="14.841897673986924" />
<vehicle id="type1_12" type="type1" route="nw" depart="16.422142854108273" />
<vehicle id="type1_13" type="type1" route="we" depart="20.8967784936498" />
<vehicle id="type1_14" type="type1" route="sn" depart="25.769250946819575" />
<vehicle id="type1_15" type="type1" route="en" depart="29.934657530574274" />
<vehicle id="type1_16" type="type1" route="wn" depart="30.719443775664303" />
<vehicle id="type1_17" type="type1" route="wn" depart="33.51729860174187" />
<vehicle id="type1_18" type="type1" route="nw" depart="36.259884617080154" />
<vehicle id="type1_19" type="type1" route="es" depart="38.82056028694323" />
<vehicle id="type1_20" type="type1" route="en" depart="39.506551686351315" />
<vehicle id="type1_21" type="type1" route="sw" depart="40.50670639702589" />
<vehicle id="type1_22" type="type1" route="sn" depart="41.32584789487368" />
<vehicle id="type1_23" type="type1" route="wn" depart="41.89040980703797" />
<vehicle id="type1_24" type="type1" route="sw" depart="43.39059011031688" />
<vehicle id="type1_25" type="type1" route="en" depart="43.50374062859697" />
<vehicle id="type1_26" type="type1" route="en" depart="46.18541212620275" />
<vehicle id="type1_27" type="type1" route="sn" depart="47.01391546571829" />
<vehicle id="type1_28" type="type1" route="wn" depart="49.901281479124" />
<vehicle id="type1_29" type="type1" route="sw" depart="50.41961246766092" />
<vehicle id="type1_30" type="type1" route="ns" depart="51.33420169066219" />
<vehicle id="type1_31" type="type1" route="wn" depart="54.633049137445354" />
<vehicle id="type1_32" type="type1" route="wn" depart="58.51199280213094" />
<vehicle id="type1_33" type="type1" route="ns" depart="61.80201195284407" />
<vehicle id="type1_34" type="type1" route="en" depart="66.41907378781684" />
<vehicle id="type1_35" type="type1" route="se" depart="66.74085110400908" />
<vehicle id="type1_36" type="type1" route="sn" depart="67.14165077899129" />
<vehicle id="type1_37" type="type1" route="es" depart="68.95253293464971" />
<vehicle id="type1_38" type="type1" route="sw" depart="74.41813719035359" />
<vehicle id="type1_39" type="type1" route="ns" depart="74.61203092808843" />
<vehicle id="type1_40" type="type1" route="es" depart="77.26539927330826" />
<vehicle id="type1_41" type="type1" route="we" depart="79.48198162802588" />
<vehicle id="type1_42" type="type1" route="nw" depart="79.92342900647382" />
<vehicle id="type1_43" type="type1" route="sn" depart="80.89352256782777" />
<vehicle id="type1_44" type="type1" route="ew" depart="81.49129330062785" />
<vehicle id="type1_45" type="type1" route="ne" depart="82.03656059202521" />
<vehicle id="type1_46" type="type1" route="ne" depart="82.52140485682573" />
<vehicle id="type1_47" type="type1" route="ew" depart="83.38630499620234" />
<vehicle id="type1_48" type="type1" route="es" depart="83.57886612942487" />
<vehicle id="type1_49" type="type1" route="wn" depart="84.09981727663914" />
<vehicle id="type1_50" type="type1" route="sn" depart="84.45087668233234" />
<vehicle id="type1_51" type="type1" route="en" depart="85.01009510184944" />
<vehicle id="type1_52" type="type1" route="es" depart="85.23026701712635" />
<vehicle id="type1_53" type="type1" route="wn" depart="89.45133993624034" />
<vehicle id="type1_54" type="type1" route="nw" depart="92.79774364551459" />
<vehicle id="type1_55" type="type1" route="sn" depart="94.6997418967454" />
<vehicle id="type1_56" type="type1" route="nw" depart="95.30388896060481" />
<vehicle id="type1_57" type="type1" route="wn" depart="101.88516534970998" />
<vehicle id="type1_58" type="type1" route="se" depart="102.04541856882784" />
<vehicle id="type1_59" type="type1" route="nw" depart="102.15101077104829" />
<vehicle id="type1_60" type="type1" route="ns" depart="103.05546988186728" />
<vehicle id="type1_61" type="type1" route="se" depart="104.05623826389179" />
<vehicle id="type1_62" type="type1" route="ne" depart="104.2785922547245" />
<vehicle id="type1_63" type="type1" route="ns" depart="107.38019830443432" />
<vehicle id="type1_64" type="type1" route="ns" depart="107.4346636707051" />
<vehicle id="type1_65" type="type1" route="wn" depart="107.95857240457337" />
<vehicle id="type1_66" type="type1" route="sn" depart="109.30422135935879" />
<vehicle id="type1_67" type="type1" route="se" depart="111.77845848800035" />
<vehicle id="type1_68" type="type1" route="sn" depart="115.37827063605899" />
<vehicle id="type1_69" type="type1" route="es" depart="116.74617810042689" />
<vehicle id="type1_70" type="type1" route="ws" depart="119.74516166951028" />
<vehicle id="type1_71" type="type1" route="ew" depart="121.82731082024077" />
<vehicle id="type1_72" type="type1" route="sw" depart="122.5015208007988" />
<vehicle id="type1_73" type="type1" route="en" depart="123.10672564250865" />
<vehicle id="type1_74" type="type1" route="ne" depart="123.98363031542534" />
<vehicle id="type1_75" type="type1" route="we" depart="125.3538918362513" />
<vehicle id="type1_76" type="type1" route="wn" depart="125.83621223784935" />
<vehicle id="type1_77" type="type1" route="sn" depart="126.89174603565631" />
<vehicle id="type1_78" type="type1" route="ns" depart="129.76080955926417" />
<vehicle id="type1_79" type="type1" route="se" depart="130.02702948335727" />
<vehicle id="type1_80" type="type1" route="en" depart="131.80341324007847" />
<vehicle id="type1_81" type="type1" route="ns" depart="132.8679805454708" />
<vehicle id="type1_82" type="type1" route="sw" depart="136.00907069898238" />
<vehicle id="emv_2" type="rescue" route="ns" depart="136.9937605726287" />
<vehicle id="type1_83" type="type1" route="es" depart="137.09314507965325" />
<vehicle id="type1_84" type="type1" route="sn" depart="138.89080230689453" />
<vehicle id="type1_85" type="type1" route="wn" depart="139.76766525483558" />
<vehicle id="emv_3" type="rescue" route="en" depart="141.01504676542183" />
<vehicle id="type1_86" type="type1" route="nw" depart="141.9721806071697" />
<vehicle id="type1_87" type="type1" route="en" depart="144.1906955287086" />
<vehicle id="type1_88" type="type1" route="ns" depart="145.6853575117573" />
<vehicle id="type1_89" type="type1" route="es" depart="147.4822121140417" />
<vehicle id="type1_90" type="type1" route="sn" depart="149.51777348214614" />
<vehicle id="type1_91" type="type1" route="ws" depart="153.58190875656103" />
<vehicle id="type1_92" type="type1" route="ws" depart="154.70330171858896" />
<vehicle id="type1_93" type="type1" route="we" depart="155.23248780616055" />
<vehicle id="type1_94" type="type1" route="en" depart="156.53114844233033" />
<vehicle id="type1_95" type="type1" route="ew" depart="156.990967468351" />
<vehicle id="type1_96" type="type1" route="we" depart="157.0278742645759" />
<vehicle id="type1_97" type="type1" route="se" depart="157.33322720878886" />
<vehicle id="type1_98" type="type1" route="se" depart="157.93569190875587" />
<vehicle id="type1_99" type="type1" route="we" depart="158.86697566485918" />
<vehicle id="type1_100" type="type1" route="se" depart="161.24019541698885" />
<vehicle id="type1_101" type="type1" route="ne" depart="161.76650908288752" />
<vehicle id="type1_102" type="type1" route="ew" depart="163.18017890239594" />
<vehicle id="type1_103" type="type1" route="en" depart="164.65534017686906" />
<vehicle id="type1_104" type="type1" route="es" depart="170.89688989996958" />
<vehicle id="type1_105" type="type1" route="es" depart="171.2267210625645" />
<vehicle id="type1_106" type="type1" route="sw" depart="172.70684845667506" />
<vehicle id="type1_107" type="type1" route="se" depart="172.9234183102475" />
<vehicle id="type1_108" type="type1" route="ew" depart="173.48165061041004" />
<vehicle id="type1_109" type="type1" route="es" depart="173.5946870629654" />
<vehicle id="type1_110" type="type1" route="sn" depart="175.43871997255016" />
<vehicle id="type1_111" type="type1" route="wn" depart="175.82777024552644" />
<vehicle id="type1_112" type="type1" route="ws" depart="176.30796098541103" />
<vehicle id="type1_113" type="type1" route="ew" depart="176.78822828360646" />
<vehicle id="type1_114" type="type1" route="se" depart="177.77210610733943" />
<vehicle id="type1_115" type="type1" route="nw" depart="178.36980010468233" />
<vehicle id="type1_116" type="type1" route="se" depart="178.91827296371738" />
<vehicle id="type1_117" type="type1" route="ns" depart="179.10976569481363" />
<vehicle id="type1_118" type="type1" route="ws" depart="183.5385151962034" />
<vehicle id="type1_119" type="type1" route="ne" depart="185.04080232711382" />
<vehicle id="type1_120" type="type1" route="we" depart="185.58494650903492" />
<vehicle id="type1_121" type="type1" route="ws" depart="187.5121021041998" />
<vehicle id="type1_122" type="type1" route="ew" depart="188.0974994135491" />
<vehicle id="type1_123" type="type1" route="nw" depart="188.4798524021538" />
<vehicle id="type1_124" type="type1" route="es" depart="196.9611801852601" />
<vehicle id="type1_125" type="type1" route="ne" depart="200.5511758446357" />
<vehicle id="type1_126" type="type1" route="ws" depart="202.4353128221763" />
<vehicle id="type1_127" type="type1" route="se" depart="202.75591611210794" />
<vehicle id="emv_4" type="rescue" route="wn" depart="203.36772778064784" />
<vehicle id="type1_128" type="type1" route="wn" depart="203.53414337421628" />
<vehicle id="type1_129" type="type1" route="en" depart="203.74717832840028" />
<vehicle id="type1_130" type="type1" route="wn" depart="203.85357041471215" />
<vehicle id="type1_131" type="type1" route="wn" depart="204.48679024498534" />
<vehicle id="type1_132" type="type1" route="ew" depart="204.7111910344473" />
<vehicle id="type1_133" type="type1" route="we" depart="205.35984052485955" />
<vehicle id="type1_134" type="type1" route="ne" depart="206.7550368079255" />
<vehicle id="type1_135" type="type1" route="ew" depart="206.8346905828391" />
<vehicle id="type1_136" type="type1" route="se" depart="207.07993965332994" />
<vehicle id="type1_137" type="type1" route="we" depart="207.42398195884573" />
<vehicle id="type1_138" type="type1" route="nw" depart="209.2115592654259" />
<vehicle id="emv_5" type="rescue" route="ew" depart="209.33905689005203" />
<vehicle id="type1_139" type="type1" route="ne" depart="211.95640649483659" />
<vehicle id="type1_140" type="type1" route="sw" depart="212.2531270947237" />
<vehicle id="type1_141" type="type1" route="ew" depart="213.70296496301836" />
<vehicle id="type1_142" type="type1" route="sn" depart="214.2393920409439" />
<vehicle id="type1_143" type="type1" route="ew" depart="214.27877014175334" />
<vehicle id="type1_144" type="type1" route="sn" depart="216.48956036389018" />
<vehicle id="type1_145" type="type1" route="wn" depart="217.7519957076038" />
<vehicle id="emv_6" type="rescue" route="sn" depart="218.67181944700178" />
<vehicle id="type1_146" type="type1" route="nw" depart="219.3226054124389" />
<vehicle id="type1_147" type="type1" route="se" depart="220.08999247049172" />
<vehicle id="type1_148" type="type1" route="ew" depart="220.44653780570525" />
<vehicle id="type1_149" type="type1" route="sw" depart="221.2050153194746" />
<vehicle id="type1_150" type="type1" route="en" depart="221.2632908709675" />
<vehicle id="type1_151" type="type1" route="we" depart="222.73975667082135" />
<vehicle id="type1_152" type="type1" route="nw" depart="229.32285765427739" />
<vehicle id="type1_153" type="type1" route="en" depart="232.4704940215421" />
<vehicle id="type1_154" type="type1" route="ew" depart="233.03747353382838" />
<vehicle id="type1_155" type="type1" route="ne" depart="234.90004208185712" />
<vehicle id="type1_156" type="type1" route="nw" depart="238.3395364856804" />
<vehicle id="type1_157" type="type1" route="en" depart="242.32408072044498" />
<vehicle id="type1_158" type="type1" route="nw" depart="244.86276187298114" />
<vehicle id="type1_159" type="type1" route="wn" depart="245.09416182897513" />
<vehicle id="type1_160" type="type1" route="nw" depart="246.24111731179653" />
<vehicle id="type1_161" type="type1" route="ne" depart="246.7623022195245" />
<vehicle id="type1_162" type="type1" route="se" depart="247.31112469066193" />
<vehicle id="type1_163" type="type1" route="en" depart="249.5428814741059" />
<vehicle id="type1_164" type="type1" route="nw" depart="253.09304987898605" />
<vehicle id="type1_165" type="type1" route="sn" depart="253.51837784299053" />
<vehicle id="type1_166" type="type1" route="ew" depart="253.8237914536769" />
<vehicle id="type1_167" type="type1" route="nw" depart="254.059054543378" />
<vehicle id="type1_168" type="type1" route="nw" depart="255.12510092222837" />
<vehicle id="type1_169" type="type1" route="se" depart="256.1704363669372" />
<vehicle id="type1_170" type="type1" route="we" depart="256.43205149127004" />
<vehicle id="type1_171" type="type1" route="se" depart="258.49250769372367" />
<vehicle id="type1_172" type="type1" route="se" depart="258.54447003486655" />
<vehicle id="type1_173" type="type1" route="ns" depart="259.49475191767135" />
<vehicle id="type1_174" type="type1" route="se" depart="260.9574581831915" />
<vehicle id="type1_175" type="type1" route="es" depart="261.1319836394272" />
<vehicle id="type1_176" type="type1" route="sw" depart="261.31562011995436" />
<vehicle id="type1_177" type="type1" route="ns" depart="262.2158084581714" />
<vehicle id="type1_178" type="type1" route="sw" depart="263.0385913158502" />
<vehicle id="type1_179" type="type1" route="wn" depart="265.0564994167066" />
<vehicle id="type1_180" type="type1" route="es" depart="266.7795443262925" />
<vehicle id="type1_181" type="type1" route="nw" depart="268.63095574044735" />
<vehicle id="type1_182" type="type1" route="se" depart="268.86553788323" />
<vehicle id="type1_183" type="type1" route="ns" depart="268.96496019669075" />
<vehicle id="type1_184" type="type1" route="sn" depart="268.99214457281454" />
<vehicle id="type1_185" type="type1" route="se" depart="269.2133362979688" />
<vehicle id="type1_186" type="type1" route="es" depart="269.4224183330738" />
<vehicle id="type1_187" type="type1" route="en" depart="270.2871651810976" />
<vehicle id="type1_188" type="type1" route="sw" depart="274.33540483704456" />
<vehicle id="type1_189" type="type1" route="ns" depart="277.23779487611785" />
<vehicle id="type1_190" type="type1" route="ne" depart="282.314301740803" />
<vehicle id="type1_191" type="type1" route="se" depart="285.1240061782916" />
<vehicle id="type1_192" type="type1" route="nw" depart="287.3097061879162" />
<vehicle id="type1_193" type="type1" route="ew" depart="287.81809125723646" />
<vehicle id="emv_7" type="rescue" route="sn" depart="289.5018503818625" />
<vehicle id="type1_194" type="type1" route="nw" depart="289.61271658425596" />
<vehicle id="type1_195" type="type1" route="nw" depart="290.5167385672863" />
<vehicle id="type1_196" type="type1" route="en" depart="290.87986642035" />
<vehicle id="type1_197" type="type1" route="en" depart="293.0584535197738" />
<vehicle id="type1_198" type="type1" route="sw" depart="293.17078790617035" />
<vehicle id="type1_199" type="type1" route="se" depart="293.62472854205237" />
<vehicle id="type1_200" type="type1" route="ne" depart="300.4081588590048" />
<vehicle id="type1_201" type="type1" route="ns" depart="300.49660666945516" />
<vehicle id="type1_202" type="type1" route="ne" depart="302.2889375359662" />
<vehicle id="type1_203" type="type1" route="nw" depart="304.0453692936297" />
<vehicle id="type1_204" type="type1" route="se" depart="304.0856882709404" />
<vehicle id="type1_205" type="type1" route="we" depart="305.2503516179261" />
<vehicle id="type1_206" type="type1" route="we" depart="305.5339238719093" />
<vehicle id="type1_207" type="type1" route="se" depart="308.50412281775806" />
<vehicle id="type1_208" type="type1" route="sw" depart="309.7606389891966" />
<vehicle id="type1_209" type="type1" route="ws" depart="310.41684911120143" />
<vehicle id="type1_210" type="type1" route="sn" depart="311.7001590827281" />
<vehicle id="type1_211" type="type1" route="nw" depart="314.5870632129059" />
<vehicle id="type1_212" type="type1" route="we" depart="317.29118637320977" />
<vehicle id="type1_213" type="type1" route="ws" depart="318.14956361092806" />
<vehicle id="type1_214" type="type1" route="we" depart="322.2933136374101" />
<vehicle id="type1_215" type="type1" route="es" depart="322.7675785575612" />
<vehicle id="type1_216" type="type1" route="ns" depart="324.81300055789984" />
<vehicle id="type1_217" type="type1" route="nw" depart="324.82222756738196" />
<vehicle id="type1_218" type="type1" route="sw" depart="325.94368526319624" />
<vehicle id="type1_219" type="type1" route="ns" depart="328.71781461281734" />
<vehicle id="type1_220" type="type1" route="es" depart="328.7326909060131" />
<vehicle id="type1_221" type="type1" route="ew" depart="330.63720109645595" />
<vehicle id="type1_222" type="type1" route="wn" depart="332.61213013868195" />
<vehicle id="type1_223" type="type1" route="sw" depart="336.5692265548486" />
<vehicle id="type1_224" type="type1" route="sw" depart="336.6347838710493" />
<vehicle id="type1_225" type="type1" route="ne" depart="336.78568602308525" />
<vehicle id="type1_226" type="type1" route="wn" depart="337.83294780020805" />
<vehicle id="type1_227" type="type1" route="en" depart="338.83179351023193" />
<vehicle id="type1_228" type="type1" route="en" depart="339.1084937467335" />
<vehicle id="type1_229" type="type1" route="ws" depart="341.5880265623241" />
<vehicle id="type1_230" type="type1" route="nw" depart="341.68499922978555" />
<vehicle id="type1_231" type="type1" route="ew" depart="345.409562482533" />
<vehicle id="type1_232" type="type1" route="ws" depart="347.7598601962808" />
<vehicle id="type1_233" type="type1" route="es" depart="348.74754425222255" />
<vehicle id="type1_234" type="type1" route="sn" depart="350.72780015951724" />
<vehicle id="type1_235" type="type1" route="we" depart="353.06208043678464" />
<vehicle id="type1_236" type="type1" route="se" depart="354.30135082835153" />
<vehicle id="type1_237" type="type1" route="sn" depart="357.48650341947683" />
<vehicle id="type1_238" type="type1" route="ws" depart="358.52358354328067" />
<vehicle id="type1_239" type="type1" route="nw" depart="358.91275294706213" />
<vehicle id="type1_240" type="type1" route="we" depart="359.8906045999182" />
<vehicle id="type1_241" type="type1" route="ne" depart="362.3989447918091" />
<vehicle id="type1_242" type="type1" route="se" depart="364.1847039801164" />
<vehicle id="type1_243" type="type1" route="ws" depart="365.86946976537996" />
<vehicle id="type1_244" type="type1" route="en" depart="366.7983360260301" />
<vehicle id="type1_245" type="type1" route="ew" depart="371.4691579251098" />
<vehicle id="type1_246" type="type1" route="wn" depart="372.01724915736037" />
<vehicle id="type1_247" type="type1" route="sw" depart="373.36815475293497" />
<vehicle id="type1_248" type="type1" route="we" depart="373.37660235559554" />
<vehicle id="type1_249" type="type1" route="ws" depart="374.160687834689" />
<vehicle id="type1_250" type="type1" route="nw" depart="375.05787611455736" />
<vehicle id="type1_251" type="type1" route="ne" depart="375.18642157367947" />
<vehicle id="type1_252" type="type1" route="sw" depart="375.48097914438995" />
<vehicle id="type1_253" type="type1" route="se" depart="377.6785093917346" />
<vehicle id="type1_254" type="type1" route="ns" depart="382.00661668072377" />
<vehicle id="type1_255" type="type1" route="ws" depart="384.2613222029291" />
<vehicle id="emv_8" type="rescue" route="ne" depart="386.0143032172791" />
<vehicle id="type1_256" type="type1" route="ew" depart="386.0157423856593" />
<vehicle id="type1_257" type="type1" route="we" depart="388.7796016326901" />
<vehicle id="type1_258" type="type1" route="wn" depart="389.67843404925975" />
<vehicle id="type1_259" type="type1" route="ws" depart="392.55623442081475" />
<vehicle id="type1_260" type="type1" route="ns" depart="393.83234753069286" />
<vehicle id="type1_261" type="type1" route="ew" depart="394.8706386954348" />
<vehicle id="type1_262" type="type1" route="se" depart="395.25945594488604" />
<vehicle id="type1_263" type="type1" route="ws" depart="397.4185629381335" />
<vehicle id="type1_264" type="type1" route="we" depart="399.6644278043121" />
<vehicle id="type1_265" type="type1" route="ws" depart="400.28083399174665" />
<vehicle id="type1_266" type="type1" route="we" depart="404.3810052842221" />
<vehicle id="type1_267" type="type1" route="en" depart="404.9550036705095" />
<vehicle id="type1_268" type="type1" route="se" depart="407.92943675023554" />
<vehicle id="type1_269" type="type1" route="sw" depart="408.30489304904813" />
<vehicle id="type1_270" type="type1" route="we" depart="409.4763163696943" />
<vehicle id="type1_271" type="type1" route="we" depart="410.47085705342846" />
<vehicle id="emv_9" type="rescue" route="en" depart="410.7491620802758" />
<vehicle id="type1_272" type="type1" route="sw" depart="411.2158894846737" />
<vehicle id="type1_273" type="type1" route="nw" depart="413.0751017434464" />
<vehicle id="type1_274" type="type1" route="wn" depart="414.6306058101391" />
<vehicle id="type1_275" type="type1" route="ns" depart="415.83756831612044" />
<vehicle id="type1_276" type="type1" route="sn" depart="415.999394317288" />
<vehicle id="type1_277" type="type1" route="en" depart="418.7535531535131" />
<vehicle id="type1_278" type="type1" route="sn" depart="419.22534760886924" />
<vehicle id="type1_279" type="type1" route="nw" depart="424.2227690375776" />
<vehicle id="type1_280" type="type1" route="we" depart="429.5087032768995" />
<vehicle id="type1_281" type="type1" route="ew" depart="431.01303290350745" />
<vehicle id="type1_282" type="type1" route="es" depart="432.30427691189107" />
<vehicle id="type1_283" type="type1" route="sn" depart="434.3852992294675" />
<vehicle id="type1_284" type="type1" route="ew" depart="434.9632089494779" />
<vehicle id="type1_285" type="type1" route="we" depart="435.543987208434" />
<vehicle id="type1_286" type="type1" route="ws" depart="438.8080326251081" />
<vehicle id="type1_287" type="type1" route="ne" depart="441.6792596122748" />
<vehicle id="type1_288" type="type1" route="es" depart="444.65313293819094" />
<vehicle id="type1_289" type="type1" route="ns" depart="445.9480003081203" />
<vehicle id="type1_290" type="type1" route="se" depart="445.99309709780766" />
<vehicle id="type1_291" type="type1" route="ns" depart="449.1666391608672" />
</routes>