<routes>
            <vType id="type1" accel="0.8" decel="4.5" sigma="0.5" length="5" maxSpeed="70"/>
            <route id="ne" edges="ni eo"/>
            <route id="ns" edges="ni so"/>
            <route id="nw" edges="ni wo"/>
            <route id="en" edges="ei no"/>
            <route id="es" edges="ei so"/>
            <route id="ew" edges="ei wo"/>
            <route id="sn" edges="si no"/>
            <route id="se" edges="si eo"/>
            <route id="sw" edges="si wo"/>
            <route id="wn" edges="wi no"/>
            <route id="we" edges="wi eo"/>
            <route id="ws" edges="wi so"/>
        <vehicle id="se_0" type="type1" route="se" depart="0.9959543267409813" />
<vehicle id="ne_1" type="type1" route="ne" depart="1.2520861774203262" />
<vehicle id="sn_2" type="type1" route="sn" depart="1.2792202768417182" />
<vehicle id="we_3" type="type1" route="we" depart="2.126544657318855" />
<vehicle id="ne_4" type="type1" route="ne" depart="2.9101222568713454" />
<vehicle id="ew_5" type="type1" route="ew" depart="3.0640575841551025" />
<vehicle id="ws_6" type="type1" route="ws" depart="3.4852426362162707" />
<vehicle id="ne_7" type="type1" route="ne" depart="3.627147024671309" />
<vehicle id="nw_8" type="type1" route="nw" depart="4.521610700331622" />
<vehicle id="se_9" type="type1" route="se" depart="6.4938217931126285" />
<vehicle id="we_10" type="type1" route="we" depart="6.930205164606223" />
<vehicle id="nw_11" type="type1" route="nw" depart="6.9592505076199656" />
<vehicle id="we_12" type="type1" route="we" depart="7.083298675159408" />
<vehicle id="sn_13" type="type1" route="sn" depart="7.318390439242638" />
<vehicle id="en_14" type="type1" route="en" depart="7.341990748902431" />
<vehicle id="wn_15" type="type1" route="wn" depart="7.37824905471789" />
<vehicle id="wn_16" type="type1" route="wn" depart="8.28190649178729" />
<vehicle id="nw_17" type="type1" route="nw" depart="8.720980010920094" />
<vehicle id="es_18" type="type1" route="es" depart="9.224131404277289" />
<vehicle id="en_19" type="type1" route="en" depart="10.408788261581556" />
<vehicle id="sw_20" type="type1" route="sw" depart="10.6348742753098" />
<vehicle id="sn_21" type="type1" route="sn" depart="11.867662134565423" />
<vehicle id="wn_22" type="type1" route="wn" depart="12.233980747622304" />
<vehicle id="sw_23" type="type1" route="sw" depart="12.740343097110182" />
<vehicle id="en_24" type="type1" route="en" depart="12.75031105453788" />
<vehicle id="en_25" type="type1" route="en" depart="12.800701464669388" />
<vehicle id="sn_26" type="type1" route="sn" depart="13.026911633716823" />
<vehicle id="wn_27" type="type1" route="wn" depart="13.365976528852075" />
<vehicle id="sw_28" type="type1" route="sw" depart="14.368958344553135" />
<vehicle id="ns_29" type="type1" route="ns" depart="15.022030709897713" />
<vehicle id="wn_30" type="type1" route="wn" depart="15.50968964911465" />
<vehicle id="wn_31" type="type1" route="wn" depart="15.771259418910208" />
<vehicle id="ns_32" type="type1" route="ns" depart="16.745812006725288" />
<vehicle id="en_33" type="type1" route="en" depart="18.478951563283992" />
<vehicle id="se_34" type="type1" route="se" depart="18.50461811879232" />
<vehicle id="sn_35" type="type1" route="sn" depart="19.215990872457006" />
<vehicle id="es_36" type="type1" route="es" depart="19.758244798903192" />
<vehicle id="sw_37" type="type1" route="sw" depart="20.040738137955017" />
<vehicle id="ns_38" type="type1" route="ns" depart="21.440195260264545" />
<vehicle id="es_39" type="type1" route="es" depart="22.297963614655018" />
<vehicle id="we_40" type="type1" route="we" depart="22.852217149768645" />
<vehicle id="nw_41" type="type1" route="nw" depart="23.21156443917676" />
<vehicle id="sn_42" type="type1" route="sn" depart="23.355815825076498" />
<vehicle id="ew_43" type="type1" route="ew" depart="23.44570892615428" />
<vehicle id="ne_44" type="type1" route="ne" depart="23.901718055770434" />
<vehicle id="ne_45" type="type1" route="ne" depart="23.924277373065404" />
<vehicle id="ew_46" type="type1" route="ew" depart="24.26793349446671" />
<vehicle id="es_47" type="type1" route="es" depart="24.966400456628808" />
<vehicle id="wn_48" type="type1" route="wn" depart="25.59638074421859" />
<vehicle id="sn_49" type="type1" route="sn" depart="26.083636042332174" />
<vehicle id="en_50" type="type1" route="en" depart="26.13136351648017" />
<vehicle id="es_51" type="type1" route="es" depart="27.144174398956466" />
<vehicle id="wn_52" type="type1" route="wn" depart="27.554213868256028" />
<vehicle id="nw_53" type="type1" route="nw" depart="28.259550273588374" />
<vehicle id="sn_54" type="type1" route="sn" depart="28.724873164161693" />
<vehicle id="nw_55" type="type1" route="nw" depart="29.682169340953827" />
<vehicle id="wn_56" type="type1" route="wn" depart="29.702526657305224" />
<vehicle id="se_57" type="type1" route="se" depart="29.8117874805637" />
<vehicle id="nw_58" type="type1" route="nw" depart="30.593897481867486" />
<vehicle id="ns_59" type="type1" route="ns" depart="30.960411856361336" />
<vehicle id="se_60" type="type1" route="se" depart="31.41501162549296" />
<vehicle id="ne_61" type="type1" route="ne" depart="32.117140616753225" />
<vehicle id="ns_62" type="type1" route="ns" depart="32.64804211872061" />
<vehicle id="ns_63" type="type1" route="ns" depart="32.68736878321191" />
<vehicle id="wn_64" type="type1" route="wn" depart="33.05320346890179" />
<vehicle id="sn_65" type="type1" route="sn" depart="33.09279664593696" />
<vehicle id="se_66" type="type1" route="se" depart="36.59588796419149" />
<vehicle id="sn_67" type="type1" route="sn" depart="38.72976149273386" />
<vehicle id="es_68" type="type1" route="es" depart="39.420010115045486" />
<vehicle id="ws_69" type="type1" route="ws" depart="39.753342397359184" />
<vehicle id="ew_70" type="type1" route="ew" depart="40.356767097611666" />
<vehicle id="sw_71" type="type1" route="sw" depart="41.51133366995265" />
<vehicle id="en_72" type="type1" route="en" depart="42.828374231253015" />
<vehicle id="ne_73" type="type1" route="ne" depart="43.65832789403062" />
<vehicle id="we_74" type="type1" route="we" depart="44.13237439977777" />
<vehicle id="wn_75" type="type1" route="wn" depart="44.374032347402185" />
<vehicle id="sn_76" type="type1" route="sn" depart="45.80194717374599" />
<vehicle id="ns_77" type="type1" route="ns" depart="46.160974547403015" />
<vehicle id="se_78" type="type1" route="se" depart="46.57316915018326" />
<vehicle id="en_79" type="type1" route="en" depart="47.420373231265586" />
<vehicle id="ns_80" type="type1" route="ns" depart="47.441526163209595" />
<vehicle id="sw_81" type="type1" route="sw" depart="47.61350493639609" />
<vehicle id="ns_82" type="type1" route="ns" depart="48.50980928699228" />
<vehicle id="es_83" type="type1" route="es" depart="48.64053269655878" />
<vehicle id="sn_84" type="type1" route="sn" depart="49.69260357764316" />
<vehicle id="wn_85" type="type1" route="wn" depart="53.03378855720994" />
<vehicle id="en_86" type="type1" route="en" depart="53.69205424515986" />
<vehicle id="nw_87" type="type1" route="nw" depart="54.41540208608642" />
<vehicle id="en_88" type="type1" route="en" depart="54.46118123833566" />
<vehicle id="ns_89" type="type1" route="ns" depart="54.47047400675809" />
<vehicle id="es_90" type="type1" route="es" depart="55.20398743308854" />
<vehicle id="sn_91" type="type1" route="sn" depart="55.80103373964997" />
<vehicle id="ws_92" type="type1" route="ws" depart="56.70727926830523" />
<vehicle id="ws_93" type="type1" route="ws" depart="56.76180775762906" />
<vehicle id="we_94" type="type1" route="we" depart="57.54654993208735" />
<vehicle id="en_95" type="type1" route="en" depart="59.35282490681667" />
<vehicle id="ew_96" type="type1" route="ew" depart="60.87283765802121" />
<vehicle id="we_97" type="type1" route="we" depart="63.28191864045869" />
<vehicle id="se_98" type="type1" route="se" depart="63.976373295419634" />
<vehicle id="se_99" type="type1" route="se" depart="64.97604106161579" />
<vehicle id="we_100" type="type1" route="we" depart="65.59229021132404" />
<vehicle id="se_101" type="type1" route="se" depart="65.72820378341821" />
<vehicle id="ne_102" type="type1" route="ne" depart="65.96192131422137" />
<vehicle id="ew_103" type="type1" route="ew" depart="66.96413935588063" />
<vehicle id="en_104" type="type1" route="en" depart="68.20075019778068" />
<vehicle id="es_105" type="type1" route="es" depart="68.93057110154336" />
<vehicle id="es_106" type="type1" route="es" depart="70.52309419689618" />
<vehicle id="sw_107" type="type1" route="sw" depart="72.2730861265707" />
<vehicle id="se_108" type="type1" route="se" depart="73.33197107392876" />
<vehicle id="ew_109" type="type1" route="ew" depart="73.44122250783752" />
<vehicle id="es_110" type="type1" route="es" depart="73.59662523799646" />
<vehicle id="sn_111" type="type1" route="sn" depart="74.1854590805599" />
<vehicle id="wn_112" type="type1" route="wn" depart="74.85830086170505" />
<vehicle id="ws_113" type="type1" route="ws" depart="74.90282309837653" />
<vehicle id="ew_114" type="type1" route="ew" depart="75.18992088457446" />
<vehicle id="se_115" type="type1" route="se" depart="76.05418233267744" />
<vehicle id="nw_116" type="type1" route="nw" depart="76.13833149599643" />
<vehicle id="se_117" type="type1" route="se" depart="76.56277991306965" />
<vehicle id="ns_118" type="type1" route="ns" depart="77.08150210740654" />
<vehicle id="ws_119" type="type1" route="ws" depart="77.28026411274217" />
<vehicle id="ne_120" type="type1" route="ne" depart="77.38548992060306" />
<vehicle id="we_121" type="type1" route="we" depart="77.6975218279929" />
<vehicle id="ws_122" type="type1" route="ws" depart="78.33843429157282" />
<vehicle id="ew_123" type="type1" route="ew" depart="78.76316900844175" />
<vehicle id="nw_124" type="type1" route="nw" depart="80.03014484872676" />
<vehicle id="es_125" type="type1" route="es" depart="81.44287291987463" />
<vehicle id="ne_126" type="type1" route="ne" depart="84.05926871126282" />
<vehicle id="ws_127" type="type1" route="ws" depart="85.37038495987856" />
<vehicle id="se_128" type="type1" route="se" depart="85.74378781768252" />
<vehicle id="wn_129" type="type1" route="wn" depart="86.7046735060708" />
<vehicle id="wn_130" type="type1" route="wn" depart="87.61914025975717" />
<vehicle id="en_131" type="type1" route="en" depart="88.13509907147886" />
<vehicle id="wn_132" type="type1" route="wn" depart="88.89448345803427" />
<vehicle id="wn_133" type="type1" route="wn" depart="89.06298790255488" />
<vehicle id="ew_134" type="type1" route="ew" depart="90.28434347902109" />
<vehicle id="we_135" type="type1" route="we" depart="91.2412450187533" />
<vehicle id="ne_136" type="type1" route="ne" depart="92.79149053855738" />
<vehicle id="ew_137" type="type1" route="ew" depart="93.47147688951584" />
<vehicle id="se_138" type="type1" route="se" depart="93.63590555173417" />
<vehicle id="we_139" type="type1" route="we" depart="93.68369662042538" />
<vehicle id="nw_140" type="type1" route="nw" depart="93.95278381129746" />
<vehicle id="ew_141" type="type1" route="ew" depart="94.21774169996704" />
<vehicle id="ne_142" type="type1" route="ne" depart="95.68340156616559" />
<vehicle id="sw_143" type="type1" route="sw" depart="96.01924108171187" />
<vehicle id="ew_144" type="type1" route="ew" depart="96.35864310049968" />
<vehicle id="sn_145" type="type1" route="sn" depart="97.0509104053502" />
<vehicle id="ew_146" type="type1" route="ew" depart="97.05456454708207" />
<vehicle id="sn_147" type="type1" route="sn" depart="97.16146314630636" />
<vehicle id="wn_148" type="type1" route="wn" depart="97.67945425553029" />
<vehicle id="sn_149" type="type1" route="sn" depart="97.77720321183551" />
<vehicle id="nw_150" type="type1" route="nw" depart="98.78092067121324" />
<vehicle id="se_151" type="type1" route="se" depart="98.819377672142" />
<vehicle id="ew_152" type="type1" route="ew" depart="99.46045013431366" />
<vehicle id="sw_153" type="type1" route="sw" depart="99.53580364346102" />
<vehicle id="en_154" type="type1" route="en" depart="99.94882780741369" />
<vehicle id="we_155" type="type1" route="we" depart="100.3973122420207" />
<vehicle id="nw_156" type="type1" route="nw" depart="101.24966218011413" />
<vehicle id="en_157" type="type1" route="en" depart="102.206837047644" />
<vehicle id="ew_158" type="type1" route="ew" depart="103.07016458922773" />
<vehicle id="ne_159" type="type1" route="ne" depart="104.9031546803942" />
<vehicle id="nw_160" type="type1" route="nw" depart="105.11056664427866" />
<vehicle id="en_161" type="type1" route="en" depart="105.71880412189739" />
<vehicle id="nw_162" type="type1" route="nw" depart="105.8368105640024" />
<vehicle id="wn_163" type="type1" route="wn" depart="105.8736887803716" />
<vehicle id="nw_164" type="type1" route="nw" depart="106.09459530607032" />
<vehicle id="ne_165" type="type1" route="ne" depart="107.3176304349938" />
<vehicle id="se_166" type="type1" route="se" depart="107.37172889765856" />
<vehicle id="en_167" type="type1" route="en" depart="107.7387838399944" />
<vehicle id="nw_168" type="type1" route="nw" depart="107.96132430616309" />
<vehicle id="sn_169" type="type1" route="sn" depart="108.19921569274423" />
<vehicle id="ew_170" type="type1" route="ew" depart="109.29438884055727" />
<vehicle id="nw_171" type="type1" route="nw" depart="110.59472851129816" />
<vehicle id="nw_172" type="type1" route="nw" depart="110.80028559178585" />
<vehicle id="se_173" type="type1" route="se" depart="113.4511895541536" />
<vehicle id="we_174" type="type1" route="we" depart="113.69442189615549" />
<vehicle id="se_175" type="type1" route="se" depart="114.25564857432774" />
<vehicle id="se_176" type="type1" route="se" depart="114.52829498346304" />
<vehicle id="ns_177" type="type1" route="ns" depart="115.11365510349817" />
<vehicle id="se_178" type="type1" route="se" depart="115.74236988445345" />
<vehicle id="es_179" type="type1" route="es" depart="116.41219185195631" />
<vehicle id="sw_180" type="type1" route="sw" depart="116.51663456297537" />
<vehicle id="ns_181" type="type1" route="ns" depart="116.60955488399163" />
<vehicle id="sw_182" type="type1" route="sw" depart="117.56340252873935" />
<vehicle id="wn_183" type="type1" route="wn" depart="118.77500923494944" />
<vehicle id="es_184" type="type1" route="es" depart="119.71698227991422" />
<vehicle id="nw_185" type="type1" route="nw" depart="120.43627924649283" />
<vehicle id="se_186" type="type1" route="se" depart="121.07135359043392" />
<vehicle id="ns_187" type="type1" route="ns" depart="121.2018908969918" />
<vehicle id="sn_188" type="type1" route="sn" depart="122.18691668888371" />
<vehicle id="se_189" type="type1" route="se" depart="122.6135597844008" />
<vehicle id="es_190" type="type1" route="es" depart="122.80661213482263" />
<vehicle id="en_191" type="type1" route="en" depart="122.94510879615127" />
<vehicle id="sw_192" type="type1" route="sw" depart="123.46817379019166" />
<vehicle id="ns_193" type="type1" route="ns" depart="125.7593518933476" />
<vehicle id="ne_194" type="type1" route="ne" depart="126.24439546489197" />
<vehicle id="se_195" type="type1" route="se" depart="126.66175332125493" />
<vehicle id="nw_196" type="type1" route="nw" depart="127.44163255938022" />
<vehicle id="ew_197" type="type1" route="ew" depart="128.016367877632" />
<vehicle id="sn_198" type="type1" route="sn" depart="128.39547146231624" />
<vehicle id="nw_199" type="type1" route="nw" depart="128.88419368777593" />
<vehicle id="nw_200" type="type1" route="nw" depart="128.92912906604667" />
<vehicle id="en_201" type="type1" route="en" depart="129.47404564352223" />
<vehicle id="en_202" type="type1" route="en" depart="130.2353724123427" />
<vehicle id="sw_203" type="type1" route="sw" depart="130.7672396812655" />
<vehicle id="se_204" type="type1" route="se" depart="131.10218846097564" />
<vehicle id="ne_205" type="type1" route="ne" depart="131.38457960502" />
<vehicle id="ns_206" type="type1" route="ns" depart="131.45533075580934" />
<vehicle id="ne_207" type="type1" route="ne" depart="131.61495845349552" />
<vehicle id="nw_208" type="type1" route="nw" depart="132.438976354899" />
<vehicle id="se_209" type="type1" route="se" depart="134.60349683886068" />
<vehicle id="we_210" type="type1" route="we" depart="134.6798298095715" />
<vehicle id="we_211" type="type1" route="we" depart="134.7962764484974" />
<vehicle id="se_212" type="type1" route="se" depart="135.66796696224685" />
<vehicle id="sw_213" type="type1" route="sw" depart="136.75527918675914" />
<vehicle id="ws_214" type="type1" route="ws" depart="136.93385109829634" />
<vehicle id="sn_215" type="type1" route="sn" depart="137.11882475703607" />
<vehicle id="nw_216" type="type1" route="nw" depart="137.18977544799904" />
<vehicle id="we_217" type="type1" route="we" depart="137.66642100232454" />
<vehicle id="ws_218" type="type1" route="ws" depart="138.01291983447305" />
<vehicle id="we_219" type="type1" route="we" depart="138.2244976928307" />
<vehicle id="es_220" type="type1" route="es" depart="139.24548230606243" />
<vehicle id="ns_221" type="type1" route="ns" depart="140.89165309026302" />
<vehicle id="nw_222" type="type1" route="nw" depart="140.98362011533607" />
<vehicle id="sw_223" type="type1" route="sw" depart="141.6557717336772" />
<vehicle id="ns_224" type="type1" route="ns" depart="142.0714472764495" />
<vehicle id="es_225" type="type1" route="es" depart="143.18679793454885" />
<vehicle id="ew_226" type="type1" route="ew" depart="143.51944732201542" />
<vehicle id="wn_227" type="type1" route="wn" depart="144.42101337141128" />
<vehicle id="sw_228" type="type1" route="sw" depart="144.56786315435767" />
<vehicle id="sw_229" type="type1" route="sw" depart="144.81970838392397" />
<vehicle id="ne_230" type="type1" route="ne" depart="145.06587481569082" />
<vehicle id="wn_231" type="type1" route="wn" depart="145.7057808278159" />
<vehicle id="en_232" type="type1" route="en" depart="146.62254874045297" />
<vehicle id="en_233" type="type1" route="en" depart="147.06376104266673" />
<vehicle id="ws_234" type="type1" route="ws" depart="149.99299770699804" />
<vehicle id="nw_235" type="type1" route="nw" depart="150.3378762166679" />
<vehicle id="ew_236" type="type1" route="ew" depart="150.4018555570179" />
<vehicle id="ws_237" type="type1" route="ws" depart="152.17170376057933" />
<vehicle id="es_238" type="type1" route="es" depart="152.47859879880016" />
<vehicle id="sn_239" type="type1" route="sn" depart="153.80155644141405" />
<vehicle id="we_240" type="type1" route="we" depart="153.92230849409032" />
<vehicle id="se_241" type="type1" route="se" depart="153.98179943056198" />
<vehicle id="sn_242" type="type1" route="sn" depart="156.98202918195182" />
<vehicle id="ws_243" type="type1" route="ws" depart="157.84066504144036" />
<vehicle id="nw_244" type="type1" route="nw" depart="158.95091601200116" />
<vehicle id="we_245" type="type1" route="we" depart="160.26899399544143" />
<vehicle id="ne_246" type="type1" route="ne" depart="160.76995679327706" />
<vehicle id="se_247" type="type1" route="se" depart="160.89363966213855" />
<vehicle id="ws_248" type="type1" route="ws" depart="165.51565188816835" />
<vehicle id="en_249" type="type1" route="en" depart="165.88274278377597" />
<vehicle id="ew_250" type="type1" route="ew" depart="166.04331407897234" />
<vehicle id="wn_251" type="type1" route="wn" depart="167.25801800306073" />
<vehicle id="sw_252" type="type1" route="sw" depart="167.38983124954765" />
<vehicle id="we_253" type="type1" route="we" depart="169.23893108949116" />
<vehicle id="ws_254" type="type1" route="ws" depart="169.4833475944073" />
<vehicle id="nw_255" type="type1" route="nw" depart="169.71339232020856" />
<vehicle id="ne_256" type="type1" route="ne" depart="169.77338341651117" />
<vehicle id="sw_257" type="type1" route="sw" depart="173.39731629331783" />
<vehicle id="se_258" type="type1" route="se" depart="174.16597189802388" />
<vehicle id="ns_259" type="type1" route="ns" depart="174.38397158514724" />
<vehicle id="ws_260" type="type1" route="ws" depart="175.11223606745222" />
<vehicle id="ne_261" type="type1" route="ne" depart="175.17440236338064" />
<vehicle id="ew_262" type="type1" route="ew" depart="175.39975433170378" />
<vehicle id="we_263" type="type1" route="we" depart="175.60295208496424" />
<vehicle id="wn_264" type="type1" route="wn" depart="175.76982376519362" />
<vehicle id="ws_265" type="type1" route="ws" depart="177.22193227863806" />
<vehicle id="ns_266" type="type1" route="ns" depart="178.24577214147286" />
<vehicle id="ew_267" type="type1" route="ew" depart="178.65516769517635" />
<vehicle id="se_268" type="type1" route="se" depart="178.8250095789226" />
<vehicle id="ws_269" type="type1" route="ws" depart="179.26657629483412" />
<vehicle id="we_270" type="type1" route="we" depart="179.9154441685879" />
<vehicle id="ws_271" type="type1" route="ws" depart="180.09319371374892" />
<vehicle id="we_272" type="type1" route="we" depart="180.9475906841705" />
<vehicle id="en_273" type="type1" route="en" depart="180.9990657097192" />
<vehicle id="se_274" type="type1" route="se" depart="183.33139561631086" />
<vehicle id="sw_275" type="type1" route="sw" depart="183.36766783916815" />
<vehicle id="we_276" type="type1" route="we" depart="183.86731164641233" />
<vehicle id="we_277" type="type1" route="we" depart="183.87190671887632" />
<vehicle id="en_278" type="type1" route="en" depart="183.93036014168766" />
<vehicle id="sw_279" type="type1" route="sw" depart="185.39913712851578" />
<vehicle id="nw_280" type="type1" route="nw" depart="185.6788761027919" />
<vehicle id="wn_281" type="type1" route="wn" depart="185.99099115094626" />
<vehicle id="ns_282" type="type1" route="ns" depart="187.56875435324562" />
<vehicle id="sn_283" type="type1" route="sn" depart="187.945043128363" />
<vehicle id="en_284" type="type1" route="en" depart="188.9272052049636" />
<vehicle id="sn_285" type="type1" route="sn" depart="189.26053411601714" />
<vehicle id="nw_286" type="type1" route="nw" depart="189.58792198830605" />
<vehicle id="we_287" type="type1" route="we" depart="189.80874425057414" />
<vehicle id="ew_288" type="type1" route="ew" depart="190.2330252874623" />
<vehicle id="es_289" type="type1" route="es" depart="195.38950038486666" />
<vehicle id="sn_290" type="type1" route="sn" depart="195.7411705294014" />
<vehicle id="ew_291" type="type1" route="ew" depart="197.54302964953123" />
<vehicle id="we_292" type="type1" route="we" depart="198.95607303955987" />
<vehicle id="ws_293" type="type1" route="ws" depart="199.74213568430196" />
<vehicle id="ne_294" type="type1" route="ne" depart="200.0656249242007" />
<vehicle id="es_295" type="type1" route="es" depart="200.58136941172012" />
<vehicle id="ns_296" type="type1" route="ns" depart="200.8965897821957" />
<vehicle id="se_297" type="type1" route="se" depart="201.1430720301901" />
<vehicle id="ns_298" type="type1" route="ns" depart="201.18387050624827" />
<vehicle id="nw_299" type="type1" route="nw" depart="201.55496278546033" />
<vehicle id="ns_300" type="type1" route="ns" depart="202.16815814350088" />
<vehicle id="sw_301" type="type1" route="sw" depart="205.93274704410197" />
<vehicle id="ne_302" type="type1" route="ne" depart="207.70989780016012" />
<vehicle id="ws_303" type="type1" route="ws" depart="207.80301107663558" />
<vehicle id="wn_304" type="type1" route="wn" depart="207.99174556900925" />
<vehicle id="ns_305" type="type1" route="ns" depart="208.76094454470947" />
<vehicle id="ns_306" type="type1" route="ns" depart="210.05237877118918" />
<vehicle id="sn_307" type="type1" route="sn" depart="212.9992073684245" />
<vehicle id="se_308" type="type1" route="se" depart="213.36295226670336" />
<vehicle id="sn_309" type="type1" route="sn" depart="213.83815285759275" />
<vehicle id="we_310" type="type1" route="we" depart="213.9949653726941" />
<vehicle id="sn_311" type="type1" route="sn" depart="214.16464088071726" />
<vehicle id="es_312" type="type1" route="es" depart="214.18279153198546" />
<vehicle id="nw_313" type="type1" route="nw" depart="214.24297462538692" />
<vehicle id="en_314" type="type1" route="en" depart="214.34809317286073" />
<vehicle id="wn_315" type="type1" route="wn" depart="214.73268957589397" />
<vehicle id="es_316" type="type1" route="es" depart="214.84450492356518" />
<vehicle id="sw_317" type="type1" route="sw" depart="217.08604450182406" />
<vehicle id="wn_318" type="type1" route="wn" depart="217.23614996426463" />
<vehicle id="sw_319" type="type1" route="sw" depart="218.06001143422503" />
<vehicle id="we_320" type="type1" route="we" depart="218.6011150183937" />
<vehicle id="sn_321" type="type1" route="sn" depart="219.05326446875944" />
<vehicle id="en_322" type="type1" route="en" depart="220.09146150047866" />
<vehicle id="wn_323" type="type1" route="wn" depart="221.23306976632202" />
<vehicle id="ne_324" type="type1" route="ne" depart="221.35363303083588" />
<vehicle id="ne_325" type="type1" route="ne" depart="222.36379443742294" />
<vehicle id="se_326" type="type1" route="se" depart="222.37929558873958" />
<vehicle id="es_327" type="type1" route="es" depart="223.44603831009042" />
<vehicle id="en_328" type="type1" route="en" depart="223.63050495447013" />
<vehicle id="sn_329" type="type1" route="sn" depart="223.81141779404564" />
<vehicle id="sw_330" type="type1" route="sw" depart="224.3533255012143" />
<vehicle id="ne_331" type="type1" route="ne" depart="224.4390629735903" />
<vehicle id="sn_332" type="type1" route="sn" depart="224.63753912393702" />
<vehicle id="ew_333" type="type1" route="ew" depart="224.71765394747857" />
<vehicle id="we_334" type="type1" route="we" depart="225.82231793594713" />
<vehicle id="es_335" type="type1" route="es" depart="226.69082866891296" />
<vehicle id="es_336" type="type1" route="es" depart="227.2835244196758" />
<vehicle id="we_337" type="type1" route="we" depart="228.1141589187764" />
<vehicle id="en_338" type="type1" route="en" depart="228.25792067212737" />
<vehicle id="ws_339" type="type1" route="ws" depart="228.28837673864624" />
<vehicle id="sn_340" type="type1" route="sn" depart="228.29552766474566" />
<vehicle id="es_341" type="type1" route="es" depart="228.85973049208778" />
<vehicle id="sw_342" type="type1" route="sw" depart="229.9351991407855" />
<vehicle id="ws_343" type="type1" route="ws" depart="230.95185213163194" />
<vehicle id="es_344" type="type1" route="es" depart="231.18875707846962" />
<vehicle id="ns_345" type="type1" route="ns" depart="231.61543144998015" />
<vehicle id="ws_346" type="type1" route="ws" depart="232.73896785851076" />
<vehicle id="sn_347" type="type1" route="sn" depart="233.39943410105863" />
<vehicle id="sn_348" type="type1" route="sn" depart="234.07286695187082" />
<vehicle id="nw_349" type="type1" route="nw" depart="236.08359708146125" />
<vehicle id="sw_350" type="type1" route="sw" depart="236.77204992388906" />
<vehicle id="es_351" type="type1" route="es" depart="240.19299216366053" />
<vehicle id="ws_352" type="type1" route="ws" depart="240.35178763728192" />
<vehicle id="ws_353" type="type1" route="ws" depart="240.8171191408827" />
<vehicle id="ws_354" type="type1" route="ws" depart="240.8932775666411" />
<vehicle id="sn_355" type="type1" route="sn" depart="241.92963582155005" />
<vehicle id="ns_356" type="type1" route="ns" depart="242.43403499167786" />
<vehicle id="en_357" type="type1" route="en" depart="242.85838733675314" />
<vehicle id="wn_358" type="type1" route="wn" depart="243.05793454534933" />
<vehicle id="sn_359" type="type1" route="sn" depart="244.0183682608906" />
<vehicle id="ne_360" type="type1" route="ne" depart="244.30035227713196" />
<vehicle id="es_361" type="type1" route="es" depart="244.70079293804818" />
<vehicle id="ws_362" type="type1" route="ws" depart="245.1478567533693" />
<vehicle id="wn_363" type="type1" route="wn" depart="245.28778802366614" />
<vehicle id="ws_364" type="type1" route="ws" depart="246.21861559634652" />
<vehicle id="we_365" type="type1" route="we" depart="246.43560216879564" />
<vehicle id="sn_366" type="type1" route="sn" depart="248.02359019925046" />
<vehicle id="ws_367" type="type1" route="ws" depart="248.15150828857628" />
<vehicle id="we_368" type="type1" route="we" depart="249.9165024970323" />
<vehicle id="en_369" type="type1" route="en" depart="249.9857690453292" />
<vehicle id="en_370" type="type1" route="en" depart="250.01808110324893" />
<vehicle id="ws_371" type="type1" route="ws" depart="250.4559619896432" />
<vehicle id="ew_372" type="type1" route="ew" depart="250.6141328259554" />
<vehicle id="ws_373" type="type1" route="ws" depart="250.94210548688176" />
<vehicle id="en_374" type="type1" route="en" depart="251.06463092612557" />
<vehicle id="we_375" type="type1" route="we" depart="251.23921087863374" />
<vehicle id="ne_376" type="type1" route="ne" depart="251.36387418034914" />
<vehicle id="sw_377" type="type1" route="sw" depart="252.4261676333426" />
<vehicle id="nw_378" type="type1" route="nw" depart="254.11213463926072" />
<vehicle id="ws_379" type="type1" route="ws" depart="254.88453773615814" />
<vehicle id="we_380" type="type1" route="we" depart="255.27821393010706" />
<vehicle id="wn_381" type="type1" route="wn" depart="256.7805377480079" />
<vehicle id="en_382" type="type1" route="en" depart="256.8851301252634" />
<vehicle id="ws_383" type="type1" route="ws" depart="259.5880265476452" />
<vehicle id="wn_384" type="type1" route="wn" depart="259.6671981739021" />
<vehicle id="ew_385" type="type1" route="ew" depart="259.7170721826124" />
<vehicle id="sn_386" type="type1" route="sn" depart="260.447016831494" />
<vehicle id="wn_387" type="type1" route="wn" depart="260.9904541815901" />
<vehicle id="we_388" type="type1" route="we" depart="261.00572326322094" />
<vehicle id="sn_389" type="type1" route="sn" depart="261.44172396152885" />