<routes>
            <vType id="type1" accel="0.8" decel="4.5" sigma="0.5" length="5" maxSpeed="70"/>
            <vType id="rescue" vClass="emergency" speedFactor="1.5" guiShape="emergency">
                <param key="has.bluelight.device" value="true"/>
            </vType>
            <route id="ne" edges="ni eo"/>
            <route id="ns" edges="ni so"/>
            <route id="nw" edges="ni wo"/>
            <route id="en" edges="ei no"/>
            <route id="es" edges="ei so"/>
            <route id="ew" edges="ei wo"/>
            <route id="sn" edges="si no"/>
            <route id="se" edges="si eo"/>
            <route id="sw" edges="si wo"/>
            <route id="wn" edges="wi no"/>
            <route id="we" edges="wi eo"/>
            <route id="ws" edges="wi so"/>
        
            <personFlow id="p_ew" begin="0" end="400" period="50">
                <walk route="ew"/>
            </personFlow>
                         
            <personFlow id="p_ns" begin="0" end="400" period="50">
                <walk route="ns"/>
            </personFlow>
                         
            <personFlow id="p_sn" begin="0" end="400" period="50">
                <walk route="sn"/>
            </personFlow>
                         
            <personFlow id="p_we" begin="0" end="400" period="50">
                <walk route="we"/>
            </personFlow>
                         <vehicle id="type1_1" type="type1" route="ew" depart="0.15731145619470513" />
<vehicle id="type1_2" type="type1" route="nw" depart="1.5715728511220743" />
<vehicle id="type1_3" type="type1" route="nw" depart="2.4123637390171626" />
<vehicle id="type1_4" type="type1" route="ne" depart="3.463724492991868" />
<vehicle id="type1_5" type="type1" route="sn" depart="5.223706039451116" />
<vehicle id="type1_6" type="type1" route="en" depart="6.338579426670465" />
<vehicle id="type1_7" type="type1" route="ns" depart="10.533088352349216" />
<vehicle id="type1_8" type="type1" route="nw" depart="11.342082023146517" />
<vehicle id="type1_9" type="type1" route="sn" depart="14.400180255901745" />
<vehicle id="type1_10" type="type1" route="we" depart="15.39980012683385" />
<vehicle id="type1_11" type="type1" route="sn" depart="15.479114006977694" />
<vehicle id="type1_12" type="type1" route="sn" depart="19.05389986677204" />
<vehicle id="emv_1" type="rescue" route="ew" depart="23.13858453683883" />
<vehicle id="type1_13" type="type1" route="sw" depart="23.975058079391417" />
<vehicle id="type1_14" type="type1" route="en" depart="24.43041146984763" />
<vehicle id="type1_15" type="type1" route="ne" depart="24.686622660212805" />
<vehicle id="type1_16" type="type1" route="ns" depart="28.632739459381995" />
<vehicle id="emv_2" type="rescue" route="sn" depart="29.994864756674772" />
<vehicle id="type1_17" type="type1" route="en" depart="30.32410761482545" />
<vehicle id="type1_18" type="type1" route="se" depart="31.74498044372129" />
<vehicle id="type1_19" type="type1" route="ws" depart="34.77643243084049" />
<vehicle id="type1_20" type="type1" route="wn" depart="35.71283699030157" />
<vehicle id="type1_21" type="type1" route="en" depart="40.48296339702664" />
<vehicle id="type1_22" type="type1" route="wn" depart="41.717581478209375" />
<vehicle id="type1_23" type="type1" route="we" depart="47.71592754811591" />
<vehicle id="type1_24" type="type1" route="ew" depart="48.252180483759986" />
<vehicle id="type1_25" type="type1" route="en" depart="49.486342102616206" />
<vehicle id="type1_26" type="type1" route="es" depart="51.28985060282893" />
<vehicle id="type1_27" type="type1" route="es" depart="51.414177986606944" />
<vehicle id="type1_28" type="type1" route="ws" depart="54.87612543439162" />
<vehicle id="type1_29" type="type1" route="sw" depart="55.59438283314371" />
<vehicle id="type1_30" type="type1" route="ws" depart="55.957128612613715" />
<vehicle id="type1_31" type="type1" route="se" depart="56.370704231269706" />
<vehicle id="type1_32" type="type1" route="wn" depart="59.4684202830188" />
<vehicle id="type1_33" type="type1" route="sn" depart="62.02095091147425" />
<vehicle id="type1_34" type="type1" route="we" depart="63.71838726572817" />
<vehicle id="type1_35" type="type1" route="en" depart="64.49769462750169" />
<vehicle id="type1_36" type="type1" route="we" depart="70.50478355216725" />
<vehicle id="type1_37" type="type1" route="ew" depart="70.77024166752845" />
<vehicle id="type1_38" type="type1" route="we" depart="70.79095242266408" />
<vehicle id="type1_39" type="type1" route="wn" depart="72.90691122873237" />
<vehicle id="type1_40" type="type1" route="en" depart="74.02410459749184" />
<vehicle id="type1_41" type="type1" route="we" depart="78.40215058336688" />
<vehicle id="type1_42" type="type1" route="we" depart="78.68486598969008" />
<vehicle id="type1_43" type="type1" route="sw" depart="79.60578927092156" />
<vehicle id="type1_44" type="type1" route="sn" depart="80.87012813249393" />
<vehicle id="type1_45" type="type1" route="ne" depart="84.00481148046613" />
<vehicle id="type1_46" type="type1" route="sn" depart="84.3542001822467" />
<vehicle id="type1_47" type="type1" route="ws" depart="86.43149636950326" />
<vehicle id="type1_48" type="type1" route="ns" depart="87.03911304065227" />
<vehicle id="type1_49" type="type1" route="es" depart="89.17745297720222" />
<vehicle id="type1_50" type="type1" route="es" depart="89.43442469979502" />
<vehicle id="type1_51" type="type1" route="nw" depart="89.47624549378864" />
<vehicle id="type1_52" type="type1" route="we" depart="91.10536600961058" />
<vehicle id="type1_53" type="type1" route="we" depart="91.42676959055738" />
<vehicle id="type1_54" type="type1" route="se" depart="93.78179425493106" />
<vehicle id="type1_55" type="type1" route="wn" depart="94.0332497324823" />
<vehicle id="type1_56" type="type1" route="wn" depart="94.92159010837791" />
<vehicle id="type1_57" type="type1" route="sn" depart="95.59873533998577" />
<vehicle id="type1_58" type="type1" route="ew" depart="95.7547385623848" />
<vehicle id="type1_59" type="type1" route="ne" depart="99.14773124440458" />
<vehicle id="type1_60" type="type1" route="we" depart="102.73099490145104" />
<vehicle id="type1_61" type="type1" route="se" depart="103.92451861508209" />
<vehicle id="type1_62" type="type1" route="ne" depart="106.13934484907844" />
<vehicle id="type1_63" type="type1" route="ns" depart="107.01554922713426" />
<vehicle id="type1_64" type="type1" route="ws" depart="108.27652348560915" />
<vehicle id="type1_65" type="type1" route="nw" depart="108.97367914722616" />
<vehicle id="type1_66" type="type1" route="sw" depart="110.79215943145908" />
<vehicle id="type1_67" type="type1" route="nw" depart="115.34923277453198" />
<vehicle id="type1_68" type="type1" route="ws" depart="117.73344721572347" />
<vehicle id="type1_69" type="type1" route="sw" depart="119.9384747803624" />
<vehicle id="type1_70" type="type1" route="ew" depart="120.8396603821517" />
<vehicle id="type1_71" type="type1" route="ws" depart="121.71110253889766" />
<vehicle id="type1_72" type="type1" route="wn" depart="124.88217753336232" />
<vehicle id="type1_73" type="type1" route="ne" depart="124.93321679800923" />
<vehicle id="type1_74" type="type1" route="sw" depart="126.19160694532746" />
<vehicle id="type1_75" type="type1" route="es" depart="128.40216023561592" />
<vehicle id="type1_76" type="type1" route="en" depart="129.67527386221602" />
<vehicle id="type1_77" type="type1" route="sw" depart="136.33221478146154" />
<vehicle id="type1_78" type="type1" route="en" depart="137.89503353205626" />
<vehicle id="type1_79" type="type1" route="nw" depart="141.2681858590242" />
<vehicle id="type1_80" type="type1" route="en" depart="143.1235802263875" />
<vehicle id="type1_81" type="type1" route="se" depart="143.56871017569165" />
<vehicle id="type1_82" type="type1" route="es" depart="145.78315500298763" />
<vehicle id="type1_83" type="type1" route="sw" depart="146.27499008689335" />
<vehicle id="type1_84" type="type1" route="ws" depart="149.70660848635472" />
<vehicle id="type1_85" type="type1" route="sw" depart="150.38933290833552" />
<vehicle id="type1_86" type="type1" route="es" depart="150.86645115204038" />
<vehicle id="type1_87" type="type1" route="ns" depart="153.23210687793627" />
<vehicle id="type1_88" type="type1" route="sn" depart="153.994344149347" />
<vehicle id="type1_89" type="type1" route="ns" depart="154.19097635680498" />
<vehicle id="type1_90" type="type1" route="se" depart="157.37090372565004" />
<vehicle id="type1_91" type="type1" route="ws" depart="157.42474876811826" />
<vehicle id="type1_92" type="type1" route="ne" depart="159.42917586273308" />
<vehicle id="type1_93" type="type1" route="nw" depart="159.46023356707983" />
<vehicle id="type1_94" type="type1" route="en" depart="160.2286131812191" />
<vehicle id="type1_95" type="type1" route="ne" depart="160.94950071069002" />
<vehicle id="type1_96" type="type1" route="sn" depart="161.34211931961372" />
<vehicle id="type1_97" type="type1" route="es" depart="161.3686794224515" />
<vehicle id="type1_98" type="type1" route="sw" depart="161.37911015251746" />
<vehicle id="type1_99" type="type1" route="ns" depart="166.1293904881712" />
<vehicle id="type1_100" type="type1" route="ws" depart="168.52009785269018" />
<vehicle id="type1_101" type="type1" route="se" depart="169.05567652503152" />
<vehicle id="type1_102" type="type1" route="sw" depart="169.49821547220012" />
<vehicle id="type1_103" type="type1" route="we" depart="171.07733524957385" />
<vehicle id="type1_104" type="type1" route="ws" depart="171.18071112467885" />
<vehicle id="type1_105" type="type1" route="sw" depart="172.80794856674808" />
<vehicle id="type1_106" type="type1" route="wn" depart="175.60082339536137" />
<vehicle id="type1_107" type="type1" route="sn" depart="178.72945125604426" />
<vehicle id="type1_108" type="type1" route="ew" depart="182.05282511083627" />
<vehicle id="emv_3" type="rescue" route="ws" depart="183.5114947401547" />
<vehicle id="type1_109" type="type1" route="we" depart="183.58395788932532" />
<vehicle id="type1_110" type="type1" route="es" depart="186.79363531504592" />
<vehicle id="type1_111" type="type1" route="ew" depart="188.31223829936263" />
<vehicle id="type1_112" type="type1" route="sn" depart="190.87969256714604" />
<vehicle id="type1_113" type="type1" route="es" depart="191.3478728339331" />
<vehicle id="type1_114" type="type1" route="nw" depart="191.83729661210523" />
<vehicle id="type1_115" type="type1" route="es" depart="193.2817991821766" />
<vehicle id="type1_116" type="type1" route="wn" depart="193.92776618582818" />
<vehicle id="type1_117" type="type1" route="sn" depart="197.1519581531843" />
<vehicle id="type1_118" type="type1" route="sn" depart="209.65668368240557" />
<vehicle id="type1_119" type="type1" route="nw" depart="212.16997452318665" />
<vehicle id="type1_120" type="type1" route="ew" depart="214.96147607135106" />
<vehicle id="type1_121" type="type1" route="ns" depart="215.19522336553223" />
<vehicle id="type1_122" type="type1" route="en" depart="215.60137364879012" />
<vehicle id="type1_123" type="type1" route="ws" depart="218.19128763993098" />
<vehicle id="type1_124" type="type1" route="en" depart="220.32221396259732" />
<vehicle id="type1_125" type="type1" route="es" depart="220.58964897918685" />
<vehicle id="type1_126" type="type1" route="se" depart="221.27583816748776" />
<vehicle id="type1_127" type="type1" route="en" depart="225.8873145851759" />
<vehicle id="type1_128" type="type1" route="es" depart="227.10609267460956" />
<vehicle id="type1_129" type="type1" route="nw" depart="227.28577718728397" />
<vehicle id="type1_130" type="type1" route="ne" depart="239.93020550727294" />
<vehicle id="type1_131" type="type1" route="se" depart="242.91845500718918" />
<vehicle id="type1_132" type="type1" route="ne" depart="243.21991927848717" />
<vehicle id="type1_133" type="type1" route="nw" depart="244.80352780757687" />
<vehicle id="type1_134" type="type1" route="ns" depart="246.9171684309944" />
<vehicle id="type1_135" type="type1" route="nw" depart="247.50055042213688" />
<vehicle id="type1_136" type="type1" route="we" depart="248.72936480825712" />
<vehicle id="type1_137" type="type1" route="sw" depart="249.7441805232172" />
<vehicle id="type1_138" type="type1" route="ns" depart="250.38185205860324" />
<vehicle id="type1_139" type="type1" route="ws" depart="255.0149717747398" />
<vehicle id="type1_140" type="type1" route="we" depart="255.34278588925892" />
<vehicle id="type1_141" type="type1" route="en" depart="255.4236206165387" />
<vehicle id="type1_142" type="type1" route="nw" depart="257.327899639199" />
<vehicle id="type1_143" type="type1" route="ew" depart="259.2193674318154" />
<vehicle id="type1_144" type="type1" route="sw" depart="259.71869146546726" />
<vehicle id="type1_145" type="type1" route="ns" depart="260.64405763362146" />
<vehicle id="type1_146" type="type1" route="ew" depart="261.27356353423863" />
<vehicle id="type1_147" type="type1" route="wn" depart="261.34467909140693" />
<vehicle id="type1_148" type="type1" route="sn" depart="262.18384932482377" />
<vehicle id="type1_149" type="type1" route="sw" depart="262.97528085844334" />
<vehicle id="type1_150" type="type1" route="en" depart="265.11784459411336" />
<vehicle id="type1_151" type="type1" route="ew" depart="268.82609755656847" />
<vehicle id="type1_152" type="type1" route="ns" depart="270.38119180398047" />
<vehicle id="type1_153" type="type1" route="en" depart="271.1532882151889" />
<vehicle id="type1_154" type="type1" route="ew" depart="274.2988615773545" />
<vehicle id="type1_155" type="type1" route="sn" depart="274.70768776021" />
<vehicle id="type1_156" type="type1" route="en" depart="277.7414507076386" />
<vehicle id="type1_157" type="type1" route="en" depart="278.18005852917196" />
<vehicle id="type1_158" type="type1" route="we" depart="280.56773530601544" />
<vehicle id="type1_159" type="type1" route="sn" depart="281.6671572274057" />
<vehicle id="type1_160" type="type1" route="es" depart="284.7209115654661" />
<vehicle id="type1_161" type="type1" route="nw" depart="285.96913340829957" />
<vehicle id="type1_162" type="type1" route="sw" depart="286.29426251281285" />
<vehicle id="type1_163" type="type1" route="ws" depart="286.9031077977294" />
<vehicle id="type1_164" type="type1" route="sw" depart="290.78354132930565" />
<vehicle id="type1_165" type="type1" route="sw" depart="292.99632982758004" />
<vehicle id="type1_166" type="type1" route="wn" depart="297.0497265582046" />
<vehicle id="type1_167" type="type1" route="se" depart="297.58137623048464" />
<vehicle id="type1_168" type="type1" route="ns" depart="298.00816786338817" />
<vehicle id="type1_169" type="type1" route="sn" depart="299.5853173160415" />
<vehicle id="type1_170" type="type1" route="wn" depart="302.6646547390244" />
<vehicle id="type1_171" type="type1" route="ns" depart="306.73665921923424" />
<vehicle id="type1_172" type="type1" route="ns" depart="309.8175230466835" />
<vehicle id="type1_173" type="type1" route="se" depart="311.1656116387925" />
<vehicle id="type1_174" type="type1" route="se" depart="311.788571631629" />
<vehicle id="type1_175" type="type1" route="ws" depart="311.94403066819046" />
<vehicle id="type1_176" type="type1" route="es" depart="316.7017525815902" />
<vehicle id="type1_177" type="type1" route="se" depart="319.111310321446" />
<vehicle id="type1_178" type="type1" route="nw" depart="323.718291331612" />
<vehicle id="type1_179" type="type1" route="ws" depart="323.97580272715527" />
<vehicle id="type1_180" type="type1" route="we" depart="324.9245407183679" />
<vehicle id="type1_181" type="type1" route="ns" depart="332.13567302968295" />
<vehicle id="type1_182" type="type1" route="sn" depart="338.5700332261283" />
<vehicle id="emv_4" type="rescue" route="ne" depart="341.1914758394817" />
<vehicle id="type1_183" type="type1" route="wn" depart="342.3891095227501" />
<vehicle id="type1_184" type="type1" route="ws" depart="344.07011682329346" />
<vehicle id="type1_185" type="type1" route="ew" depart="344.98906273211537" />
<vehicle id="type1_186" type="type1" route="nw" depart="349.4619787307542" />
<vehicle id="type1_187" type="type1" route="se" depart="352.14507834193995" />
<vehicle id="type1_188" type="type1" route="wn" depart="352.2562135891597" />
<vehicle id="type1_189" type="type1" route="en" depart="353.1190668323435" />
<vehicle id="type1_190" type="type1" route="ns" depart="354.2214612287099" />
<vehicle id="type1_191" type="type1" route="ns" depart="355.86340517081135" />
<vehicle id="type1_192" type="type1" route="ne" depart="356.0437322301739" />
<vehicle id="type1_193" type="type1" route="sn" depart="358.61033649700295" />
<vehicle id="type1_194" type="type1" route="ws" depart="362.3645927515712" />
<vehicle id="type1_195" type="type1" route="we" depart="363.8638484613915" />
<vehicle id="type1_196" type="type1" route="se" depart="372.41009265034194" />
<vehicle id="type1_197" type="type1" route="ns" depart="373.49521518053274" />
<vehicle id="type1_198" type="type1" route="en" depart="374.64118185035153" />
<vehicle id="type1_199" type="type1" route="se" depart="377.929851066006" />
<vehicle id="type1_200" type="type1" route="ew" depart="380.7182663175133" />
<vehicle id="type1_201" type="type1" route="ne" depart="381.6893070639356" />
<vehicle id="type1_202" type="type1" route="ew" depart="382.2378072750114" />
<vehicle id="type1_203" type="type1" route="ns" depart="384.7246254752623" />
<vehicle id="emv_5" type="rescue" route="sn" depart="385.66080937136485" />
<vehicle id="type1_204" type="type1" route="ne" depart="387.39957800053566" />
<vehicle id="type1_205" type="type1" route="wn" depart="389.8485353243113" />
<vehicle id="type1_206" type="type1" route="sn" depart="390.8650517785727" />
<vehicle id="type1_207" type="type1" route="ew" depart="393.8466013876009" />
<vehicle id="type1_208" type="type1" route="nw" depart="396.23928439952215" />
<vehicle id="type1_209" type="type1" route="ws" depart="396.77300179925896" />
<vehicle id="type1_210" type="type1" route="sn" depart="397.7540710342623" />
<vehicle id="type1_211" type="type1" route="ne" depart="401.17853649076415" />
<vehicle id="type1_212" type="type1" route="nw" depart="402.20664735363886" />
<vehicle id="type1_213" type="type1" route="se" depart="403.60572441758717" />
<vehicle id="type1_214" type="type1" route="ew" depart="407.52062164402963" />
<vehicle id="type1_215" type="type1" route="we" depart="409.14489965526667" />
<vehicle id="type1_216" type="type1" route="es" depart="414.8155559327393" />
<vehicle id="type1_217" type="type1" route="we" depart="417.1786552055414" />
<vehicle id="type1_218" type="type1" route="se" depart="421.0709168576576" />
<vehicle id="emv_6" type="rescue" route="nw" depart="421.3663586526149" />
<vehicle id="type1_219" type="type1" route="es" depart="426.5774649038678" />
<vehicle id="type1_220" type="type1" route="sw" depart="426.82459621740713" />
<vehicle id="type1_221" type="type1" route="en" depart="428.7351379191298" />
<vehicle id="type1_222" type="type1" route="se" depart="429.04108958314686" />
<vehicle id="type1_223" type="type1" route="ns" depart="430.98408643582763" />
<vehicle id="type1_224" type="type1" route="nw" depart="431.91231604074335" />
<vehicle id="type1_225" type="type1" route="ns" depart="435.69017761342116" />
<vehicle id="type1_226" type="type1" route="we" depart="441.037575837997" />
<vehicle id="type1_227" type="type1" route="wn" depart="442.0906774229092" />
<vehicle id="type1_228" type="type1" route="ew" depart="450.4916510887664" />
<vehicle id="type1_229" type="type1" route="wn" depart="452.0803948846003" />
<vehicle id="type1_230" type="type1" route="we" depart="452.800862944087" />
<vehicle id="type1_231" type="type1" route="sn" depart="454.61673167329565" />
<vehicle id="type1_232" type="type1" route="sn" depart="455.15212146798353" />
<vehicle id="type1_233" type="type1" route="se" depart="455.43737004123" />
<vehicle id="type1_234" type="type1" route="es" depart="457.5265264963546" />
<vehicle id="type1_235" type="type1" route="en" depart="457.7290996272568" />
<vehicle id="type1_236" type="type1" route="we" depart="459.30178677449567" />
<vehicle id="type1_237" type="type1" route="ns" depart="460.4930886009638" />
<vehicle id="type1_238" type="type1" route="se" depart="461.25224109718204" />
<vehicle id="type1_239" type="type1" route="es" depart="461.8684272267279" />
<vehicle id="type1_240" type="type1" route="wn" depart="462.36548706812636" />
<vehicle id="type1_241" type="type1" route="sw" depart="464.8471515190641" />
<vehicle id="type1_242" type="type1" route="es" depart="464.8549297166537" />
<vehicle id="type1_243" type="type1" route="ns" depart="466.4756964731212" />
<vehicle id="type1_244" type="type1" route="se" depart="471.2797884136826" />
<vehicle id="type1_245" type="type1" route="es" depart="471.76529785958087" />
<vehicle id="type1_246" type="type1" route="es" depart="475.1578452899649" />
<vehicle id="type1_247" type="type1" route="wn" depart="476.87819283927837" />
<vehicle id="type1_248" type="type1" route="es" depart="477.1442426174443" />
<vehicle id="type1_249" type="type1" route="sn" depart="477.56656605827584" />
<vehicle id="type1_250" type="type1" route="nw" depart="478.9250111414686" />
<vehicle id="type1_251" type="type1" route="nw" depart="479.33972271229715" />
<vehicle id="type1_252" type="type1" route="sw" depart="480.8449638526615" />
<vehicle id="type1_253" type="type1" route="se" depart="483.9146467194861" />
<vehicle id="type1_254" type="type1" route="ew" depart="484.2060976085339" />
<vehicle id="type1_255" type="type1" route="sn" depart="485.2345812489185" />
<vehicle id="emv_7" type="rescue" route="ew" depart="485.76444036187826" />
<vehicle id="type1_256" type="type1" route="ne" depart="488.34908204344936" />
<vehicle id="type1_257" type="type1" route="es" depart="488.79994423651004" />
<vehicle id="type1_258" type="type1" route="nw" depart="494.62791125872957" />
<vehicle id="type1_259" type="type1" route="sw" depart="495.95877915804556" />
<vehicle id="type1_260" type="type1" route="es" depart="496.9485328539245" />
<vehicle id="type1_261" type="type1" route="ne" depart="499.6347939510612" />
<vehicle id="type1_262" type="type1" route="es" depart="499.8935433649245" />
<vehicle id="type1_263" type="type1" route="nw" depart="503.77687074055996" />
<vehicle id="type1_264" type="type1" route="en" depart="505.48659760415194" />
<vehicle id="type1_265" type="type1" route="ew" depart="511.08290914218264" />
<vehicle id="type1_266" type="type1" route="en" depart="511.62361251184177" />
<vehicle id="type1_267" type="type1" route="we" depart="521.9255684018727" />
<vehicle id="type1_268" type="type1" route="ne" depart="522.7240887044428" />
<vehicle id="type1_269" type="type1" route="ns" depart="522.9566592954642" />
<vehicle id="type1_270" type="type1" route="nw" depart="523.1567826299477" />
<vehicle id="type1_271" type="type1" route="ws" depart="527.210667543594" />
<vehicle id="type1_272" type="type1" route="nw" depart="528.297039940604" />
<vehicle id="type1_273" type="type1" route="ns" depart="531.5302593032842" />
<vehicle id="type1_274" type="type1" route="sn" depart="539.6832815122303" />
<vehicle id="type1_275" type="type1" route="sn" depart="543.9792902235437" />
<vehicle id="type1_276" type="type1" route="we" depart="544.6613938118473" />
<vehicle id="type1_277" type="type1" route="wn" depart="545.8749930271368" />
<vehicle id="type1_278" type="type1" route="ws" depart="545.9685091643438" />
<vehicle id="type1_279" type="type1" route="es" depart="547.1456291741307" />
<vehicle id="type1_280" type="type1" route="en" depart="555.7611389235756" />
<vehicle id="type1_281" type="type1" route="sn" depart="557.6799790905128" />
<vehicle id="type1_282" type="type1" route="nw" depart="558.4395376935463" />
<vehicle id="type1_283" type="type1" route="sn" depart="560.217775656614" />
<vehicle id="type1_284" type="type1" route="ws" depart="564.5960069393517" />
<vehicle id="type1_285" type="type1" route="sw" depart="566.2670120659925" />
<vehicle id="type1_286" type="type1" route="ns" depart="567.2963367342549" />
<vehicle id="type1_287" type="type1" route="se" depart="567.6553150277125" />
<vehicle id="type1_288" type="type1" route="sw" depart="578.7177643752763" />
<vehicle id="type1_289" type="type1" route="ws" depart="582.8778554779034" />
<vehicle id="type1_290" type="type1" route="sw" depart="583.9344092346189" />
<vehicle id="type1_291" type="type1" route="ew" depart="586.6250129857033" />
<vehicle id="type1_292" type="type1" route="we" depart="587.3157619381725" />
<vehicle id="type1_293" type="type1" route="es" depart="587.8155429915771" />
<vehicle id="type1_294" type="type1" route="ew" depart="588.144811757898" />
<vehicle id="type1_295" type="type1" route="ws" depart="588.8906851667718" />
<vehicle id="type1_296" type="type1" route="es" depart="593.6449413155815" />
<vehicle id="type1_297" type="type1" route="ew" depart="596.0815095487759" />
<vehicle id="type1_298" type="type1" route="en" depart="596.2964281761242" />
<vehicle id="type1_299" type="type1" route="en" depart="596.4608199034072" />
<vehicle id="type1_300" type="type1" route="se" depart="597.7899303160501" />
<vehicle id="type1_301" type="type1" route="sn" depart="610.125483368509" />
<vehicle id="type1_302" type="type1" route="ws" depart="610.2277446085902" />
<vehicle id="type1_303" type="type1" route="we" depart="614.2314261695615" />
<vehicle id="type1_304" type="type1" route="ws" depart="614.2672017024685" />
<vehicle id="type1_305" type="type1" route="es" depart="617.6990011821669" />
<vehicle id="type1_306" type="type1" route="ne" depart="623.176867068247" />
<vehicle id="type1_307" type="type1" route="we" depart="623.4902694341733" />
<vehicle id="type1_308" type="type1" route="en" depart="626.3605382303721" />
<vehicle id="type1_309" type="type1" route="we" depart="626.9318886328664" />
<vehicle id="type1_310" type="type1" route="ws" depart="627.7056134138139" />
<vehicle id="type1_311" type="type1" route="ew" depart="629.005964352641" />
<vehicle id="type1_312" type="type1" route="en" depart="630.3902086342447" />
<vehicle id="type1_313" type="type1" route="ws" depart="631.8600510254046" />
<vehicle id="type1_314" type="type1" route="se" depart="633.2962357319243" />
<vehicle id="type1_315" type="type1" route="ew" depart="633.9824146373543" />
<vehicle id="type1_316" type="type1" route="se" depart="637.3084242045013" />
<vehicle id="type1_317" type="type1" route="wn" depart="637.5896242554303" />
<vehicle id="type1_318" type="type1" route="ws" depart="641.621584425324" />
<vehicle id="type1_319" type="type1" route="ne" depart="643.6884353549983" />
<vehicle id="type1_320" type="type1" route="ew" depart="647.9426688675728" />
<vehicle id="type1_321" type="type1" route="sn" depart="649.2646843388542" />
<vehicle id="type1_322" type="type1" route="wn" depart="650.764435572397" />
<vehicle id="type1_323" type="type1" route="ne" depart="652.6970827495293" />
<vehicle id="type1_324" type="type1" route="ns" depart="652.7252224662934" />
<vehicle id="type1_325" type="type1" route="ns" depart="653.1951320374444" />
<vehicle id="type1_326" type="type1" route="we" depart="663.7018287657553" />
<vehicle id="type1_327" type="type1" route="nw" depart="664.6754685456484" />
<vehicle id="type1_328" type="type1" route="sn" depart="666.5106652500488" />
<vehicle id="type1_329" type="type1" route="ns" depart="668.511987040081" />
<vehicle id="type1_330" type="type1" route="es" depart="671.0653599837561" />
<vehicle id="type1_331" type="type1" route="ws" depart="674.0528677763502" />
<vehicle id="type1_332" type="type1" route="sn" depart="678.0829256026338" />
<vehicle id="type1_333" type="type1" route="ns" depart="678.1456928019126" />
<vehicle id="type1_334" type="type1" route="wn" depart="679.0414157521936" />
<vehicle id="type1_335" type="type1" route="wn" depart="681.7560153215381" />
<vehicle id="type1_336" type="type1" route="nw" depart="688.6197714531868" />
<vehicle id="type1_337" type="type1" route="ne" depart="688.7642207287366" />
<vehicle id="type1_338" type="type1" route="we" depart="695.2897442836703" />
<vehicle id="type1_339" type="type1" route="ns" depart="696.7845546281292" />
<vehicle id="type1_340" type="type1" route="ne" depart="701.267239666979" />
<vehicle id="type1_341" type="type1" route="nw" depart="701.9858850373796" />
<vehicle id="type1_342" type="type1" route="en" depart="702.712730746571" />
<vehicle id="type1_343" type="type1" route="wn" depart="702.7544709626949" />
<vehicle id="type1_344" type="type1" route="en" depart="704.8468243477525" />
<vehicle id="type1_345" type="type1" route="sn" depart="706.1504536459338" />
<vehicle id="type1_346" type="type1" route="sn" depart="707.1014266474727" />
<vehicle id="type1_347" type="type1" route="es" depart="711.2791162203032" />
<vehicle id="type1_348" type="type1" route="wn" depart="713.2838245693754" />
<vehicle id="type1_349" type="type1" route="es" depart="717.0617753697964" />
<vehicle id="type1_350" type="type1" route="ns" depart="718.172595982829" />
<vehicle id="type1_351" type="type1" route="es" depart="723.4125934567853" />
<vehicle id="type1_352" type="type1" route="en" depart="724.1668982641886" />
<vehicle id="type1_353" type="type1" route="ws" depart="724.6706627140622" />
<vehicle id="type1_354" type="type1" route="ws" depart="729.4800030993688" />
<vehicle id="type1_355" type="type1" route="sw" depart="729.731070059618" />
<vehicle id="type1_356" type="type1" route="ew" depart="731.4222640502849" />
<vehicle id="type1_357" type="type1" route="sn" depart="731.5171591333411" />
<vehicle id="type1_358" type="type1" route="we" depart="737.8926566939821" />
<vehicle id="type1_359" type="type1" route="sn" depart="745.0646385319833" />