<routes>
            <vType id="type1" accel="0.8" decel="4.5" sigma="0.5" length="5" maxSpeed="70"/>
            <vType id="rescue" vClass="emergency" speedFactor="1.5" guiShape="emergency">
                <param key="has.bluelight.device" value="true"/>
            </vType>
            <route id="ne" edges="ni eo"/>
            <route id="ns" edges="ni so"/>
            <route id="nw" edges="ni wo"/>
            <route id="en" edges="ei no"/>
            <route id="es" edges="ei so"/>
            <route id="ew" edges="ei wo"/>
            <route id="sn" edges="si no"/>
            <route id="se" edges="si eo"/>
            <route id="sw" edges="si wo"/>
            <route id="wn" edges="wi no"/>
            <route id="we" edges="wi eo"/>
            <route id="ws" edges="wi so"/>
        <vehicle id="type1_1" type="type1" route="wn" depart="1.0385644652585482" />
<vehicle id="type1_2" type="type1" route="sn" depart="1.5290632900473828" />
<vehicle id="type1_3" type="type1" route="en" depart="2.592548301655921" />
<vehicle id="type1_4" type="type1" route="sn" depart="2.6906735833287723" />
<vehicle id="type1_5" type="type1" route="we" depart="4.233329140684674" />
<vehicle id="type1_6" type="type1" route="ne" depart="4.6351701761838475" />
<vehicle id="type1_7" type="type1" route="ew" depart="6.356063283097742" />
<vehicle id="emv_1" type="rescue" route="ws" depart="10.72604880406125" />
<vehicle id="type1_8" type="type1" route="ne" depart="12.76967885476503" />
<vehicle id="type1_9" type="type1" route="nw" depart="14.861602340748814" />
<vehicle id="type1_10" type="type1" route="se" depart="16.929437867830764" />
<vehicle id="type1_11" type="type1" route="we" depart="17.134758308470914" />
<vehicle id="type1_12" type="type1" route="nw" depart="20.040482669726845" />
<vehicle id="type1_13" type="type1" route="we" depart="21.292007892350902" />
<vehicle id="type1_14" type="type1" route="sn" depart="21.401514434691315" />
<vehicle id="type1_15" type="type1" route="en" depart="21.527752974156954" />
<vehicle id="type1_16" type="type1" route="wn" depart="21.875088437895048" />
<vehicle id="type1_17" type="type1" route="wn" depart="22.793095774916885" />
<vehicle id="type1_18" type="type1" route="nw" depart="22.999795561011855" />
<vehicle id="type1_19" type="type1" route="es" depart="26.08227820500516" />
<vehicle id="type1_20" type="type1" route="en" depart="26.27139642061082" />
<vehicle id="type1_21" type="type1" route="sw" depart="28.05156898606991" />
<vehicle id="type1_22" type="type1" route="sn" depart="28.184753187173612" />
<vehicle id="type1_23" type="type1" route="wn" depart="28.854569533548382" />
<vehicle id="type1_24" type="type1" route="sw" depart="29.020855325605122" />
<vehicle id="type1_25" type="type1" route="en" depart="29.386247032188532" />
<vehicle id="type1_26" type="type1" route="en" depart="29.901992282807843" />
<vehicle id="type1_27" type="type1" route="sn" depart="32.79597835158441" />
<vehicle id="type1_28" type="type1" route="wn" depart="34.35420743105163" />
<vehicle id="type1_29" type="type1" route="sw" depart="34.56421188757591" />
<vehicle id="type1_30" type="type1" route="ns" depart="35.39760528084855" />
<vehicle id="type1_31" type="type1" route="wn" depart="35.7391265006674" />
<vehicle id="type1_32" type="type1" route="wn" depart="36.162323119488896" />
<vehicle id="type1_33" type="type1" route="ns" depart="36.52950407014595" />
<vehicle id="type1_34" type="type1" route="en" depart="36.995424954333366" />
<vehicle id="type1_35" type="type1" route="se" depart="38.281908599597976" />
<vehicle id="type1_36" type="type1" route="sn" depart="38.44313300930455" />
<vehicle id="type1_37" type="type1" route="es" depart="38.59833952973087" />
<vehicle id="type1_38" type="type1" route="sw" depart="39.86223729349362" />
<vehicle id="type1_39" type="type1" route="ns" depart="40.80138920227488" />
<vehicle id="type1_40" type="type1" route="es" depart="41.23191177465466" />
<vehicle id="type1_41" type="type1" route="we" depart="44.463429016972306" />
<vehicle id="type1_42" type="type1" route="nw" depart="44.64790288439632" />
<vehicle id="type1_43" type="type1" route="sn" depart="45.64492676830698" />
<vehicle id="type1_44" type="type1" route="ew" depart="45.713904363442" />
<vehicle id="type1_45" type="type1" route="ne" depart="46.0611093075631" />
<vehicle id="type1_46" type="type1" route="ne" depart="47.17714215978812" />
<vehicle id="type1_47" type="type1" route="ew" depart="49.665487073848126" />
<vehicle id="type1_48" type="type1" route="es" depart="51.47499169212246" />
<vehicle id="type1_49" type="type1" route="wn" depart="51.60953140396179" />
<vehicle id="type1_50" type="type1" route="sn" depart="51.91114712277233" />
<vehicle id="type1_51" type="type1" route="en" depart="52.12527906658194" />
<vehicle id="type1_52" type="type1" route="es" depart="52.781351909659115" />
<vehicle id="type1_53" type="type1" route="wn" depart="53.362475510914926" />
<vehicle id="type1_54" type="type1" route="nw" depart="53.75003568097208" />
<vehicle id="type1_55" type="type1" route="sn" depart="54.81884879996168" />
<vehicle id="type1_56" type="type1" route="nw" depart="55.11620862965139" />
<vehicle id="type1_57" type="type1" route="wn" depart="62.89434799375749" />
<vehicle id="type1_58" type="type1" route="se" depart="63.43270701919862" />
<vehicle id="type1_59" type="type1" route="nw" depart="64.53941167904401" />
<vehicle id="type1_60" type="type1" route="ns" depart="64.7015723639018" />
<vehicle id="type1_61" type="type1" route="se" depart="64.97272710818281" />
<vehicle id="type1_62" type="type1" route="ne" depart="67.27943819329606" />
<vehicle id="type1_63" type="type1" route="ns" depart="67.54975444969254" />
<vehicle id="type1_64" type="type1" route="ns" depart="67.94947046851054" />
<vehicle id="type1_65" type="type1" route="wn" depart="69.04573660811857" />
<vehicle id="type1_66" type="type1" route="sn" depart="69.382765433757" />
<vehicle id="type1_67" type="type1" route="se" depart="70.87510197976195" />
<vehicle id="type1_68" type="type1" route="sn" depart="70.90948520328753" />
<vehicle id="type1_69" type="type1" route="es" depart="71.64100694266148" />
<vehicle id="type1_70" type="type1" route="ws" depart="72.60270462678186" />
<vehicle id="type1_71" type="type1" route="ew" depart="73.09551961599485" />
<vehicle id="type1_72" type="type1" route="sw" depart="73.26849298469952" />
<vehicle id="type1_73" type="type1" route="en" depart="74.33017479166261" />
<vehicle id="type1_74" type="type1" route="ne" depart="75.21666644487055" />
<vehicle id="type1_75" type="type1" route="we" depart="76.56951803441514" />
<vehicle id="type1_76" type="type1" route="wn" depart="78.6448588770696" />
<vehicle id="type1_77" type="type1" route="sn" depart="79.4558103253503" />
<vehicle id="type1_78" type="type1" route="ns" depart="79.90987155252365" />
<vehicle id="type1_79" type="type1" route="se" depart="80.16217020713735" />
<vehicle id="type1_80" type="type1" route="en" depart="81.46877730252704" />
<vehicle id="type1_81" type="type1" route="ns" depart="82.02223846480902" />
<vehicle id="type1_82" type="type1" route="sw" depart="83.34971044528535" />
<vehicle id="emv_2" type="rescue" route="ns" depart="84.25537629342398" />
<vehicle id="type1_83" type="type1" route="es" depart="85.18327622540609" />
<vehicle id="type1_84" type="type1" route="sn" depart="86.4608937392212" />
<vehicle id="type1_85" type="type1" route="wn" depart="87.02899286896" />
<vehicle id="emv_3" type="rescue" route="en" depart="88.88982038981007" />
<vehicle id="type1_86" type="type1" route="nw" depart="88.89228032879276" />
<vehicle id="type1_87" type="type1" route="en" depart="90.53832078168878" />
<vehicle id="type1_88" type="type1" route="ns" depart="90.6852437415349" />
<vehicle id="type1_89" type="type1" route="es" depart="96.22669743423188" />
<vehicle id="type1_90" type="type1" route="sn" depart="96.70457495396339" />
<vehicle id="type1_91" type="type1" route="ws" depart="99.7237280817047" />
<vehicle id="type1_92" type="type1" route="ws" depart="104.82826349141916" />
<vehicle id="type1_93" type="type1" route="we" depart="105.75262420822229" />
<vehicle id="type1_94" type="type1" route="en" depart="106.31127716201723" />
<vehicle id="type1_95" type="type1" route="ew" depart="106.41935945163598" />
<vehicle id="type1_96" type="type1" route="we" depart="107.81825871275196" />
<vehicle id="type1_97" type="type1" route="se" depart="109.39092288095488" />
<vehicle id="type1_98" type="type1" route="se" depart="109.54219332619421" />
<vehicle id="type1_99" type="type1" route="we" depart="110.09117690314967" />
<vehicle id="type1_100" type="type1" route="se" depart="111.00946822883206" />
<vehicle id="type1_101" type="type1" route="ne" depart="112.63288292027329" />
<vehicle id="type1_102" type="type1" route="ew" depart="115.57294770145118" />
<vehicle id="type1_103" type="type1" route="en" depart="116.6479062923591" />
<vehicle id="type1_104" type="type1" route="es" depart="116.80632484065782" />
<vehicle id="type1_105" type="type1" route="es" depart="117.12787170212265" />
<vehicle id="type1_106" type="type1" route="sw" depart="117.21895876548474" />
<vehicle id="type1_107" type="type1" route="se" depart="119.96831543279163" />
<vehicle id="type1_108" type="type1" route="ew" depart="120.29282205184937" />
<vehicle id="type1_109" type="type1" route="es" depart="123.89620513014474" />
<vehicle id="type1_110" type="type1" route="sn" depart="126.14639027137407" />
<vehicle id="type1_111" type="type1" route="wn" depart="127.50740298106423" />
<vehicle id="type1_112" type="type1" route="ws" depart="127.83678996910406" />
<vehicle id="type1_113" type="type1" route="ew" depart="128.12188340406766" />
<vehicle id="type1_114" type="type1" route="se" depart="129.7964531754781" />
<vehicle id="type1_115" type="type1" route="nw" depart="131.32695330509733" />
<vehicle id="type1_116" type="type1" route="se" depart="131.91229003057737" />
<vehicle id="type1_117" type="type1" route="ns" depart="132.3153355237773" />
<vehicle id="type1_118" type="type1" route="ws" depart="132.98827435454865" />
<vehicle id="type1_119" type="type1" route="ne" depart="133.54761634876485" />
<vehicle id="type1_120" type="type1" route="we" depart="133.8106886238655" />
<vehicle id="type1_121" type="type1" route="ws" depart="135.11534199318402" />
<vehicle id="type1_122" type="type1" route="ew" depart="137.51276357904948" />
<vehicle id="type1_123" type="type1" route="nw" depart="137.58977568821348" />
<vehicle id="type1_124" type="type1" route="es" depart="137.79614581564238" />
<vehicle id="type1_125" type="type1" route="ne" depart="142.81237010913836" />
<vehicle id="type1_126" type="type1" route="ws" depart="143.37575782866472" />
<vehicle id="type1_127" type="type1" route="se" depart="145.1122093579774" />
<vehicle id="emv_4" type="rescue" route="wn" depart="145.56472105639895" />
<vehicle id="type1_128" type="type1" route="wn" depart="146.47842073133245" />
<vehicle id="type1_129" type="type1" route="en" depart="146.574882752091" />
<vehicle id="type1_130" type="type1" route="wn" depart="147.55691529876395" />
<vehicle id="type1_131" type="type1" route="wn" depart="152.44148515544344" />
<vehicle id="type1_132" type="type1" route="ew" depart="152.64181001567448" />
<vehicle id="type1_133" type="type1" route="we" depart="154.1232261418078" />
<vehicle id="type1_134" type="type1" route="ne" depart="154.70523241593116" />
<vehicle id="type1_135" type="type1" route="ew" depart="155.88436400132431" />
<vehicle id="type1_136" type="type1" route="se" depart="156.95838979792845" />
<vehicle id="type1_137" type="type1" route="we" depart="157.04834179336737" />
<vehicle id="type1_138" type="type1" route="nw" depart="159.20057561614817" />
<vehicle id="emv_5" type="rescue" route="ew" depart="163.1277256022212" />
<vehicle id="type1_139" type="type1" route="ne" depart="163.638239249251" />
<vehicle id="type1_140" type="type1" route="sw" depart="163.89632480208303" />
<vehicle id="type1_141" type="type1" route="ew" depart="168.00236031731697" />
<vehicle id="type1_142" type="type1" route="sn" depart="168.96553419241667" />
<vehicle id="type1_143" type="type1" route="ew" depart="171.9476371077132" />
<vehicle id="type1_144" type="type1" route="sn" depart="173.8467571406864" />
<vehicle id="type1_145" type="type1" route="wn" depart="176.1344817883442" />
<vehicle id="emv_6" type="rescue" route="sn" depart="176.88159624400902" />
<vehicle id="type1_146" type="type1" route="nw" depart="177.35144218303887" />
<vehicle id="type1_147" type="type1" route="se" depart="179.20736606067078" />
<vehicle id="type1_148" type="type1" route="ew" depart="179.8568375599927" />
<vehicle id="type1_149" type="type1" route="sw" depart="181.2269171922543" />
<vehicle id="type1_150" type="type1" route="en" depart="181.56086829365256" />
<vehicle id="type1_151" type="type1" route="we" depart="184.15445943373248" />
<vehicle id="type1_152" type="type1" route="nw" depart="186.19455466126848" />
<vehicle id="type1_153" type="type1" route="en" depart="189.61572196181567" />
<vehicle id="type1_154" type="type1" route="ew" depart="194.93516184168809" />
<vehicle id="type1_155" type="type1" route="ne" depart="198.5707845631524" />
<vehicle id="type1_156" type="type1" route="nw" depart="199.24445416508667" />
<vehicle id="type1_157" type="type1" route="en" depart="201.85548814961626" />
<vehicle id="type1_158" type="type1" route="nw" depart="201.9923130980643" />
<vehicle id="type1_159" type="type1" route="wn" depart="202.59264845389052" />
<vehicle id="type1_160" type="type1" route="nw" depart="205.619820930619" />
<vehicle id="type1_161" type="type1" route="ne" depart="209.03840112055195" />
<vehicle id="type1_162" type="type1" route="se" depart="209.3657837656575" />
<vehicle id="type1_163" type="type1" route="en" depart="210.4629183700338" />
<vehicle id="type1_164" type="type1" route="nw" depart="210.48548412991383" />
<vehicle id="type1_165" type="type1" route="sn" depart="214.96838243062632" />
<vehicle id="type1_166" type="type1" route="ew" depart="221.24521839575002" />
<vehicle id="type1_167" type="type1" route="nw" depart="222.33303156899683" />
<vehicle id="type1_168" type="type1" route="nw" depart="224.84660363454006" />
<vehicle id="type1_169" type="type1" route="se" depart="225.01796011386836" />
<vehicle id="type1_170" type="type1" route="we" depart="227.12509331364708" />
<vehicle id="type1_171" type="type1" route="se" depart="227.742388898551" />
<vehicle id="type1_172" type="type1" route="se" depart="228.10543960991046" />
<vehicle id="type1_173" type="type1" route="ns" depart="232.14620024862404" />
<vehicle id="type1_174" type="type1" route="se" depart="233.7490817537608" />
<vehicle id="type1_175" type="type1" route="es" depart="233.78713386067594" />
<vehicle id="type1_176" type="type1" route="sw" depart="233.90818712406468" />
<vehicle id="type1_177" type="type1" route="ns" depart="234.57622089010627" />
<vehicle id="type1_178" type="type1" route="sw" depart="234.70814494659896" />
<vehicle id="type1_179" type="type1" route="wn" depart="237.10955363951166" />
<vehicle id="type1_180" type="type1" route="es" depart="240.55154980535733" />
<vehicle id="type1_181" type="type1" route="nw" depart="244.44301035371564" />
<vehicle id="type1_182" type="type1" route="se" depart="245.0277271836976" />
<vehicle id="type1_183" type="type1" route="ns" depart="245.35893230253586" />
<vehicle id="type1_184" type="type1" route="sn" depart="246.29928446995203" />
<vehicle id="type1_185" type="type1" route="se" depart="247.5201304567046" />
<vehicle id="type1_186" type="type1" route="es" depart="248.07579718733552" />
<vehicle id="type1_187" type="type1" route="en" depart="254.8052987137591" />
<vehicle id="type1_188" type="type1" route="sw" depart="255.23948806556012" />
<vehicle id="type1_189" type="type1" route="ns" depart="255.47340699638403" />
<vehicle id="type1_190" type="type1" route="ne" depart="256.37345930801706" />
<vehicle id="type1_191" type="type1" route="se" depart="258.29571744424624" />
<vehicle id="type1_192" type="type1" route="nw" depart="258.73595933980255" />
<vehicle id="type1_193" type="type1" route="ew" depart="259.49846364778585" />
<vehicle id="emv_7" type="rescue" route="sn" depart="260.413067749921" />
<vehicle id="type1_194" type="type1" route="nw" depart="260.4554600105098" />
<vehicle id="type1_195" type="type1" route="nw" depart="261.12184393953027" />
<vehicle id="type1_196" type="type1" route="en" depart="262.64350226522106" />
<vehicle id="type1_197" type="type1" route="en" depart="262.7594278103061" />
<vehicle id="type1_198" type="type1" route="sw" depart="265.1958835485206" />
<vehicle id="type1_199" type="type1" route="se" depart="265.37707214860535" />
<vehicle id="type1_200" type="type1" route="ne" depart="267.50374215676663" />
<vehicle id="type1_201" type="type1" route="ns" depart="268.9275921352459" />
<vehicle id="type1_202" type="type1" route="ne" depart="269.2986933742804" />
<vehicle id="type1_203" type="type1" route="nw" depart="269.4030215356911" />
<vehicle id="type1_204" type="type1" route="se" depart="269.61963294201837" />
<vehicle id="type1_205" type="type1" route="we" depart="270.2917656474358" />
<vehicle id="type1_206" type="type1" route="we" depart="270.3042091817258" />
<vehicle id="type1_207" type="type1" route="se" depart="270.56196052685937" />
<vehicle id="type1_208" type="type1" route="sw" depart="271.239335365472" />
<vehicle id="type1_209" type="type1" route="ws" depart="272.1335814391631" />
<vehicle id="type1_210" type="type1" route="sn" depart="273.2313315679362" />
<vehicle id="type1_211" type="type1" route="nw" depart="280.5468658610955" />
<vehicle id="type1_212" type="type1" route="we" depart="280.6095721660537" />
<vehicle id="type1_213" type="type1" route="ws" depart="281.217142994519" />
<vehicle id="type1_214" type="type1" route="we" depart="282.0141905504566" />
<vehicle id="type1_215" type="type1" route="es" depart="282.3386071835457" />
<vehicle id="type1_216" type="type1" route="ns" depart="282.5594445730523" />
<vehicle id="type1_217" type="type1" route="nw" depart="282.82627530850306" />
<vehicle id="type1_218" type="type1" route="sw" depart="282.88446253432267" />
<vehicle id="type1_219" type="type1" route="ns" depart="286.7232136247429" />
<vehicle id="type1_220" type="type1" route="es" depart="288.10257232574685" />
<vehicle id="type1_221" type="type1" route="ew" depart="288.15765326038996" />
<vehicle id="type1_222" type="type1" route="wn" depart="291.40205605874365" />
<vehicle id="type1_223" type="type1" route="sw" depart="291.7567687225706" />
<vehicle id="type1_224" type="type1" route="sw" depart="296.5610151190632" />
<vehicle id="type1_225" type="type1" route="ne" depart="296.8817204541005" />
<vehicle id="type1_226" type="type1" route="wn" depart="299.72447675818864" />
<vehicle id="type1_227" type="type1" route="en" depart="304.129335372447" />
<vehicle id="type1_228" type="type1" route="en" depart="304.402337203279" />
<vehicle id="type1_229" type="type1" route="ws" depart="304.5081645743226" />
<vehicle id="type1_230" type="type1" route="nw" depart="304.91260725594276" />
<vehicle id="type1_231" type="type1" route="ew" depart="306.6214037714421" />
<vehicle id="type1_232" type="type1" route="ws" depart="307.6585845757798" />
<vehicle id="type1_233" type="type1" route="es" depart="307.67024442483734" />
<vehicle id="type1_234" type="type1" route="sn" depart="308.11830623798596" />
<vehicle id="type1_235" type="type1" route="we" depart="309.16075426628134" />
<vehicle id="type1_236" type="type1" route="se" depart="309.7196142506188" />
<vehicle id="type1_237" type="type1" route="sn" depart="310.74500566423035" />
<vehicle id="type1_238" type="type1" route="ws" depart="311.32821987865486" />
<vehicle id="type1_239" type="type1" route="nw" depart="311.36911196487955" />
<vehicle id="type1_240" type="type1" route="we" depart="314.5784052735091" />
<vehicle id="type1_241" type="type1" route="ne" depart="315.5161662061824" />
<vehicle id="type1_242" type="type1" route="se" depart="316.8336253721041" />
<vehicle id="type1_243" type="type1" route="ws" depart="316.9486099000223" />
<vehicle id="type1_244" type="type1" route="en" depart="317.1465534056681" />
<vehicle id="type1_245" type="type1" route="ew" depart="320.3223081926429" />
<vehicle id="type1_246" type="type1" route="wn" depart="321.2437503646821" />
<vehicle id="type1_247" type="type1" route="sw" depart="321.90843298852116" />
<vehicle id="type1_248" type="type1" route="we" depart="321.92895020222136" />
<vehicle id="type1_249" type="type1" route="ws" depart="323.45756329100146" />
<vehicle id="type1_250" type="type1" route="nw" depart="323.76454276435567" />
<vehicle id="type1_251" type="type1" route="ne" depart="324.5886600410511" />
<vehicle id="type1_252" type="type1" route="sw" depart="326.2206485000526" />
<vehicle id="type1_253" type="type1" route="se" depart="326.2419843580819" />
<vehicle id="type1_254" type="type1" route="ns" depart="326.7710281415204" />
<vehicle id="type1_255" type="type1" route="ws" depart="329.2521398859791" />
<vehicle id="emv_8" type="rescue" route="ne" depart="329.8823892156907" />
<vehicle id="type1_256" type="type1" route="ew" depart="331.53894018394556" />
<vehicle id="type1_257" type="type1" route="we" depart="331.68466289326096" />
<vehicle id="type1_258" type="type1" route="wn" depart="333.06940131981486" />
<vehicle id="type1_259" type="type1" route="ws" depart="333.210002888895" />
<vehicle id="type1_260" type="type1" route="ns" depart="333.5547072923763" />
<vehicle id="type1_261" type="type1" route="ew" depart="334.25401178019644" />
<vehicle id="type1_262" type="type1" route="se" depart="334.48364530328695" />
<vehicle id="type1_263" type="type1" route="ws" depart="337.6804402749436" />
<vehicle id="type1_264" type="type1" route="we" depart="338.7964192686732" />
<vehicle id="type1_265" type="type1" route="ws" depart="341.56412786184984" />
<vehicle id="type1_266" type="type1" route="we" depart="341.6095341485781" />
<vehicle id="type1_267" type="type1" route="en" depart="341.76182764893855" />
<vehicle id="type1_268" type="type1" route="se" depart="341.7956851522303" />
<vehicle id="type1_269" type="type1" route="sw" depart="341.8244374048051" />
<vehicle id="type1_270" type="type1" route="we" depart="344.00239244604364" />
<vehicle id="type1_271" type="type1" route="we" depart="344.73331260370225" />
<vehicle id="emv_9" type="rescue" route="en" depart="347.137190846493" />
<vehicle id="type1_272" type="type1" route="sw" depart="347.4844312543749" />
<vehicle id="type1_273" type="type1" route="nw" depart="349.71049757200274" />
<vehicle id="type1_274" type="type1" route="wn" depart="349.7647466463136" />
<vehicle id="type1_275" type="type1" route="ns" depart="349.8427146474358" />
<vehicle id="type1_276" type="type1" route="sn" depart="350.0861381365384" />
<vehicle id="type1_277" type="type1" route="en" depart="350.62361776172617" />
<vehicle id="type1_278" type="type1" route="sn" depart="350.94993146132276" />
<vehicle id="type1_279" type="type1" route="nw" depart="352.2351991995462" />
<vehicle id="type1_280" type="type1" route="we" depart="354.3079456505803" />
<vehicle id="type1_281" type="type1" route="ew" depart="355.3779791686615" />
<vehicle id="type1_282" type="type1" route="es" depart="355.5058529056483" />
<vehicle id="type1_283" type="type1" route="sn" depart="355.84063609465557" />
<vehicle id="type1_284" type="type1" route="ew" depart="357.33169722442886" />
<vehicle id="type1_285" type="type1" route="we" depart="361.7793003500283" />
<vehicle id="type1_286" type="type1" route="ws" depart="362.72294644342884" />
<vehicle id="type1_287" type="type1" route="ne" depart="364.0085914720809" />
<vehicle id="type1_288" type="type1" route="es" depart="367.2475981615304" />
<vehicle id="type1_289" type="type1" route="ns" depart="368.4294521038468" />
<vehicle id="type1_290" type="type1" route="se" depart="369.2653194764465" />
<vehicle id="type1_291" type="type1" route="ns" depart="370.65141744281794" />
</routes>