<routes>
            <vType id="type1" accel="0.8" decel="4.5" sigma="0.5" length="5" maxSpeed="70"/>
            <route id="ne" edges="ni eo"/>
            <route id="ns" edges="ni so"/>
            <route id="nw" edges="ni wo"/>
            <route id="en" edges="ei no"/>
            <route id="es" edges="ei so"/>
            <route id="ew" edges="ei wo"/>
            <route id="sn" edges="si no"/>
            <route id="se" edges="si eo"/>
            <route id="sw" edges="si wo"/>
            <route id="wn" edges="wi no"/>
            <route id="we" edges="wi eo"/>
            <route id="ws" edges="wi so"/>
            <route id="nn" edges="ni no"/>
            <route id="ss" edges="si so"/>
            <route id="ee" edges="ei eo"/>
            <route id="ww" edges="wi wo"/>
        <vehicle id="se_0" type="type1" route="se" depart="0.11298648715371695" />
<vehicle id="ne_1" type="type1" route="ne" depart="1.688640594464885" />
<vehicle id="sn_2" type="type1" route="sn" depart="1.8145228341618234" />
<vehicle id="we_3" type="type1" route="we" depart="2.335897273825844" />
<vehicle id="ne_4" type="type1" route="ne" depart="2.7344933541817835" />
<vehicle id="ew_5" type="type1" route="ew" depart="5.241199823217205" />
<vehicle id="ws_6" type="type1" route="ws" depart="6.31352278831779" />
<vehicle id="ne_7" type="type1" route="ne" depart="6.315822149319408" />
<vehicle id="nw_8" type="type1" route="nw" depart="6.377300942184154" />
<vehicle id="se_9" type="type1" route="se" depart="7.542007045552059" />
<vehicle id="we_10" type="type1" route="we" depart="9.762239905805632" />
<vehicle id="nw_11" type="type1" route="nw" depart="9.908127936631137" />
<vehicle id="we_12" type="type1" route="we" depart="10.51036646724901" />
<vehicle id="sn_13" type="type1" route="sn" depart="11.663450413704354" />
<vehicle id="en_14" type="type1" route="en" depart="13.684396841575543" />
<vehicle id="wn_15" type="type1" route="wn" depart="14.470488186786076" />
<vehicle id="wn_16" type="type1" route="wn" depart="14.59828665243647" />
<vehicle id="nw_17" type="type1" route="nw" depart="14.785118957840401" />
<vehicle id="es_18" type="type1" route="es" depart="15.462662949009086" />
<vehicle id="en_19" type="type1" route="en" depart="15.795709932648853" />
<vehicle id="sw_20" type="type1" route="sw" depart="15.951681303048986" />
<vehicle id="sn_21" type="type1" route="sn" depart="16.525919508223303" />
<vehicle id="wn_22" type="type1" route="wn" depart="16.591958780587497" />
<vehicle id="sw_23" type="type1" route="sw" depart="17.05858179073293" />
<vehicle id="en_24" type="type1" route="en" depart="17.530026088950216" />
<vehicle id="en_25" type="type1" route="en" depart="21.144551679804792" />
<vehicle id="sn_26" type="type1" route="sn" depart="21.363207074690802" />
<vehicle id="wn_27" type="type1" route="wn" depart="21.715701357649102" />
<vehicle id="sw_28" type="type1" route="sw" depart="22.04790908685411" />
<vehicle id="ns_29" type="type1" route="ns" depart="22.120601227656472" />
<vehicle id="wn_30" type="type1" route="wn" depart="22.232862158141607" />
<vehicle id="wn_31" type="type1" route="wn" depart="22.244975781255782" />
<vehicle id="ns_32" type="type1" route="ns" depart="22.439494814970423" />
<vehicle id="en_33" type="type1" route="en" depart="23.728627880665687" />
<vehicle id="se_34" type="type1" route="se" depart="24.52716075170892" />
<vehicle id="sn_35" type="type1" route="sn" depart="24.629095478502382" />
<vehicle id="es_36" type="type1" route="es" depart="24.849844666553324" />
<vehicle id="sw_37" type="type1" route="sw" depart="26.225822021798926" />
<vehicle id="ns_38" type="type1" route="ns" depart="26.276388900621654" />
<vehicle id="es_39" type="type1" route="es" depart="26.816430031471253" />
<vehicle id="we_40" type="type1" route="we" depart="27.631672673922743" />
<vehicle id="nw_41" type="type1" route="nw" depart="27.673778681052752" />
<vehicle id="sn_42" type="type1" route="sn" depart="28.054125836591034" />
<vehicle id="ew_43" type="type1" route="ew" depart="29.636645413978982" />
<vehicle id="ne_44" type="type1" route="ne" depart="29.787633424382186" />
<vehicle id="ne_45" type="type1" route="ne" depart="30.976980194729517" />
<vehicle id="ew_46" type="type1" route="ew" depart="31.595096227259194" />
<vehicle id="es_47" type="type1" route="es" depart="31.798621630371418" />
<vehicle id="wn_48" type="type1" route="wn" depart="32.37818175089518" />
<vehicle id="sn_49" type="type1" route="sn" depart="33.491560469873065" />
<vehicle id="en_50" type="type1" route="en" depart="35.0009495525813" />
<vehicle id="es_51" type="type1" route="es" depart="35.67840408118315" />
<vehicle id="wn_52" type="type1" route="wn" depart="37.566468576910175" />
<vehicle id="nw_53" type="type1" route="nw" depart="37.64550659513979" />
<vehicle id="sn_54" type="type1" route="sn" depart="37.83478507098211" />
<vehicle id="nw_55" type="type1" route="nw" depart="37.88724968654065" />
<vehicle id="wn_56" type="type1" route="wn" depart="38.00129600221135" />
<vehicle id="se_57" type="type1" route="se" depart="38.39829826260896" />
<vehicle id="nw_58" type="type1" route="nw" depart="38.497897275822275" />
<vehicle id="ns_59" type="type1" route="ns" depart="38.80614244168509" />
<vehicle id="se_60" type="type1" route="se" depart="39.08054973789048" />
<vehicle id="ne_61" type="type1" route="ne" depart="39.94775607162566" />
<vehicle id="ns_62" type="type1" route="ns" depart="40.18551324150415" />
<vehicle id="ns_63" type="type1" route="ns" depart="40.405142471863115" />
<vehicle id="wn_64" type="type1" route="wn" depart="40.451736949969344" />
<vehicle id="sn_65" type="type1" route="sn" depart="40.787108837159444" />
<vehicle id="se_66" type="type1" route="se" depart="42.33436586009819" />
<vehicle id="sn_67" type="type1" route="sn" depart="42.68748300183029" />
<vehicle id="es_68" type="type1" route="es" depart="44.673366306552154" />
<vehicle id="ws_69" type="type1" route="ws" depart="45.48629649820231" />
<vehicle id="ew_70" type="type1" route="ew" depart="45.889805268190685" />
<vehicle id="sw_71" type="type1" route="sw" depart="46.92330297378183" />
<vehicle id="en_72" type="type1" route="en" depart="47.02320450821438" />
<vehicle id="ne_73" type="type1" route="ne" depart="47.68392801789229" />
<vehicle id="we_74" type="type1" route="we" depart="47.82854046336432" />
<vehicle id="wn_75" type="type1" route="wn" depart="49.448096002341245" />
<vehicle id="sn_76" type="type1" route="sn" depart="50.884558912865586" />
<vehicle id="ns_77" type="type1" route="ns" depart="51.75762216348956" />
<vehicle id="se_78" type="type1" route="se" depart="52.14005796598188" />
<vehicle id="en_79" type="type1" route="en" depart="52.45676570578273" />
<vehicle id="ns_80" type="type1" route="ns" depart="53.3339090633069" />
<vehicle id="sw_81" type="type1" route="sw" depart="53.85545722945845" />
<vehicle id="ns_82" type="type1" route="ns" depart="54.80764115551502" />
<vehicle id="es_83" type="type1" route="es" depart="54.871702992798994" />
<vehicle id="sn_84" type="type1" route="sn" depart="55.09424207853042" />
<vehicle id="wn_85" type="type1" route="wn" depart="56.16384881535754" />
<vehicle id="en_86" type="type1" route="en" depart="56.19778758449965" />
<vehicle id="nw_87" type="type1" route="nw" depart="58.451890473034375" />
<vehicle id="en_88" type="type1" route="en" depart="58.649047831557766" />
<vehicle id="ns_89" type="type1" route="ns" depart="58.705580242378836" />
<vehicle id="es_90" type="type1" route="es" depart="58.94404834172748" />
<vehicle id="sn_91" type="type1" route="sn" depart="59.94901608210754" />
<vehicle id="ws_92" type="type1" route="ws" depart="60.06412592635822" />
<vehicle id="ws_93" type="type1" route="ws" depart="60.26155475880047" />
<vehicle id="we_94" type="type1" route="we" depart="62.359119901802366" />
<vehicle id="en_95" type="type1" route="en" depart="62.74450691322047" />
<vehicle id="ew_96" type="type1" route="ew" depart="63.86126308491753" />
<vehicle id="we_97" type="type1" route="we" depart="64.12605260826469" />
<vehicle id="se_98" type="type1" route="se" depart="64.47191041913575" />
<vehicle id="se_99" type="type1" route="se" depart="64.48163994923587" />
<vehicle id="we_100" type="type1" route="we" depart="64.95829575648209" />
<vehicle id="se_101" type="type1" route="se" depart="66.1657380480088" />
<vehicle id="ne_102" type="type1" route="ne" depart="66.21539646605267" />
<vehicle id="ew_103" type="type1" route="ew" depart="66.40740575988232" />
<vehicle id="en_104" type="type1" route="en" depart="66.95348463362403" />
<vehicle id="es_105" type="type1" route="es" depart="67.15819035091319" />
<vehicle id="es_106" type="type1" route="es" depart="67.79815565754306" />
<vehicle id="sw_107" type="type1" route="sw" depart="69.89721245706124" />
<vehicle id="se_108" type="type1" route="se" depart="70.13939540202094" />
<vehicle id="ew_109" type="type1" route="ew" depart="70.42398316467916" />
<vehicle id="es_110" type="type1" route="es" depart="70.93222476293367" />
<vehicle id="sn_111" type="type1" route="sn" depart="71.66464950716257" />
<vehicle id="wn_112" type="type1" route="wn" depart="72.55925857660695" />
<vehicle id="ws_113" type="type1" route="ws" depart="74.75215869518158" />
<vehicle id="ew_114" type="type1" route="ew" depart="74.7598592331351" />
<vehicle id="se_115" type="type1" route="se" depart="74.95034670786973" />
<vehicle id="nw_116" type="type1" route="nw" depart="77.19191134233077" />
<vehicle id="se_117" type="type1" route="se" depart="77.62161436960353" />
<vehicle id="ns_118" type="type1" route="ns" depart="77.99241875454199" />
<vehicle id="ws_119" type="type1" route="ws" depart="78.23098352432159" />
<vehicle id="ne_120" type="type1" route="ne" depart="80.05450666380159" />
<vehicle id="we_121" type="type1" route="we" depart="80.33641853536767" />
<vehicle id="ws_122" type="type1" route="ws" depart="81.29174459600293" />
<vehicle id="ew_123" type="type1" route="ew" depart="82.56094094343139" />
<vehicle id="nw_124" type="type1" route="nw" depart="83.74593250711307" />
<vehicle id="es_125" type="type1" route="es" depart="84.90146053747564" />
<vehicle id="ne_126" type="type1" route="ne" depart="85.24217402305545" />
<vehicle id="ws_127" type="type1" route="ws" depart="85.42797028500527" />
<vehicle id="se_128" type="type1" route="se" depart="86.96504794920858" />
<vehicle id="wn_129" type="type1" route="wn" depart="87.91717319186414" />
<vehicle id="wn_130" type="type1" route="wn" depart="88.10370542078267" />
<vehicle id="en_131" type="type1" route="en" depart="88.86893865521607" />
<vehicle id="wn_132" type="type1" route="wn" depart="89.52902054653201" />
<vehicle id="wn_133" type="type1" route="wn" depart="89.77737260569583" />
<vehicle id="ew_134" type="type1" route="ew" depart="90.83349717081926" />
<vehicle id="we_135" type="type1" route="we" depart="91.25567205571173" />
<vehicle id="ne_136" type="type1" route="ne" depart="91.394049386888" />
<vehicle id="ew_137" type="type1" route="ew" depart="92.15801727748283" />
<vehicle id="se_138" type="type1" route="se" depart="93.3482029709874" />
<vehicle id="we_139" type="type1" route="we" depart="93.80766670842365" />
<vehicle id="nw_140" type="type1" route="nw" depart="94.01659604167148" />
<vehicle id="ew_141" type="type1" route="ew" depart="94.06155087838175" />
<vehicle id="ne_142" type="type1" route="ne" depart="94.45434536920556" />
<vehicle id="sw_143" type="type1" route="sw" depart="96.19756187316938" />
<vehicle id="ew_144" type="type1" route="ew" depart="96.38690289466133" />
<vehicle id="sn_145" type="type1" route="sn" depart="96.55249730182881" />
<vehicle id="ew_146" type="type1" route="ew" depart="96.55265289483573" />
<vehicle id="sn_147" type="type1" route="sn" depart="98.34381545262727" />
<vehicle id="wn_148" type="type1" route="wn" depart="98.90736848653553" />
<vehicle id="sn_149" type="type1" route="sn" depart="99.17276014518053" />
<vehicle id="nw_150" type="type1" route="nw" depart="100.25371258214311" />
<vehicle id="se_151" type="type1" route="se" depart="100.52664089308014" />
<vehicle id="ew_152" type="type1" route="ew" depart="101.73307456028256" />
<vehicle id="sw_153" type="type1" route="sw" depart="102.76903987040265" />
<vehicle id="en_154" type="type1" route="en" depart="102.87308902457215" />
<vehicle id="we_155" type="type1" route="we" depart="104.06992252310535" />
<vehicle id="nw_156" type="type1" route="nw" depart="104.2997553669664" />
<vehicle id="en_157" type="type1" route="en" depart="104.95940206742077" />
<vehicle id="ew_158" type="type1" route="ew" depart="108.86909260475414" />
<vehicle id="ne_159" type="type1" route="ne" depart="109.55237462714153" />
<vehicle id="nw_160" type="type1" route="nw" depart="109.93507163865506" />
<vehicle id="en_161" type="type1" route="en" depart="110.49353378164427" />
<vehicle id="nw_162" type="type1" route="nw" depart="110.92437335290819" />
<vehicle id="wn_163" type="type1" route="wn" depart="114.02111280381314" />
<vehicle id="nw_164" type="type1" route="nw" depart="114.79629119359267" />
<vehicle id="ne_165" type="type1" route="ne" depart="117.86712509865794" />
<vehicle id="se_166" type="type1" route="se" depart="120.27476247501201" />
<vehicle id="en_167" type="type1" route="en" depart="123.3378644101206" />
<vehicle id="nw_168" type="type1" route="nw" depart="125.13939675823728" />
<vehicle id="sn_169" type="type1" route="sn" depart="125.44534788410249" />
<vehicle id="ew_170" type="type1" route="ew" depart="125.95674785832537" />
<vehicle id="nw_171" type="type1" route="nw" depart="126.0987012209387" />
<vehicle id="nw_172" type="type1" route="nw" depart="127.151180160016" />
<vehicle id="se_173" type="type1" route="se" depart="127.94071217054073" />
<vehicle id="we_174" type="type1" route="we" depart="130.81971358800288" />
<vehicle id="se_175" type="type1" route="se" depart="131.7716173559864" />
<vehicle id="se_176" type="type1" route="se" depart="131.8508740840507" />
<vehicle id="ns_177" type="type1" route="ns" depart="132.3272779713919" />
<vehicle id="se_178" type="type1" route="se" depart="132.36381661078323" />
<vehicle id="es_179" type="type1" route="es" depart="132.54202553078645" />
<vehicle id="sw_180" type="type1" route="sw" depart="133.55835116764032" />
<vehicle id="ns_181" type="type1" route="ns" depart="134.31839641605526" />
<vehicle id="sw_182" type="type1" route="sw" depart="135.08503333522603" />
<vehicle id="wn_183" type="type1" route="wn" depart="135.58250166627394" />
<vehicle id="es_184" type="type1" route="es" depart="135.99748945218735" />
<vehicle id="nw_185" type="type1" route="nw" depart="136.95285645241916" />
<vehicle id="se_186" type="type1" route="se" depart="137.69359291658392" />
<vehicle id="ns_187" type="type1" route="ns" depart="137.90532173388172" />
<vehicle id="sn_188" type="type1" route="sn" depart="138.19659765099223" />
<vehicle id="se_189" type="type1" route="se" depart="138.73947055103673" />
<vehicle id="es_190" type="type1" route="es" depart="139.55022228860196" />
<vehicle id="en_191" type="type1" route="en" depart="139.9655857403425" />
<vehicle id="sw_192" type="type1" route="sw" depart="141.97199588007794" />
<vehicle id="ns_193" type="type1" route="ns" depart="143.62113560513157" />
<vehicle id="ne_194" type="type1" route="ne" depart="143.87512422333603" />
<vehicle id="se_195" type="type1" route="se" depart="144.9684094966331" />
<vehicle id="nw_196" type="type1" route="nw" depart="145.23473994544514" />
<vehicle id="ew_197" type="type1" route="ew" depart="145.5447918717839" />
<vehicle id="sn_198" type="type1" route="sn" depart="147.91146296023817" />
<vehicle id="nw_199" type="type1" route="nw" depart="149.48138197709739" />
<vehicle id="nw_200" type="type1" route="nw" depart="150.88205400348056" />
<vehicle id="en_201" type="type1" route="en" depart="151.1544293972331" />
<vehicle id="en_202" type="type1" route="en" depart="152.0976540852781" />
<vehicle id="sw_203" type="type1" route="sw" depart="152.52249451517673" />
<vehicle id="se_204" type="type1" route="se" depart="152.87975051909586" />
<vehicle id="ne_205" type="type1" route="ne" depart="153.5618022822205" />
<vehicle id="ns_206" type="type1" route="ns" depart="153.70815437565204" />
<vehicle id="ne_207" type="type1" route="ne" depart="153.96063726211298" />
<vehicle id="nw_208" type="type1" route="nw" depart="154.79679409671513" />
<vehicle id="se_209" type="type1" route="se" depart="157.0241195891075" />
<vehicle id="we_210" type="type1" route="we" depart="157.02473466528258" />
<vehicle id="we_211" type="type1" route="we" depart="157.5329827950384" />
<vehicle id="se_212" type="type1" route="se" depart="157.62153246537724" />
<vehicle id="sw_213" type="type1" route="sw" depart="157.86628214613282" />
<vehicle id="ws_214" type="type1" route="ws" depart="158.10470448079784" />
<vehicle id="sn_215" type="type1" route="sn" depart="158.4188802016739" />
<vehicle id="nw_216" type="type1" route="nw" depart="158.79933633122664" />
<vehicle id="we_217" type="type1" route="we" depart="159.08732191615408" />
<vehicle id="ws_218" type="type1" route="ws" depart="160.20123865603222" />
<vehicle id="we_219" type="type1" route="we" depart="161.23839976766652" />
<vehicle id="es_220" type="type1" route="es" depart="161.82472608005978" />
<vehicle id="ns_221" type="type1" route="ns" depart="162.6396599242287" />
<vehicle id="nw_222" type="type1" route="nw" depart="162.82274279947418" />
<vehicle id="sw_223" type="type1" route="sw" depart="164.220195802931" />
<vehicle id="ns_224" type="type1" route="ns" depart="164.32798339587396" />
<vehicle id="es_225" type="type1" route="es" depart="166.17801981259646" />
<vehicle id="ew_226" type="type1" route="ew" depart="167.7581084968932" />
<vehicle id="wn_227" type="type1" route="wn" depart="167.93400677805727" />
<vehicle id="sw_228" type="type1" route="sw" depart="169.05785891836751" />
<vehicle id="sw_229" type="type1" route="sw" depart="169.70457306076153" />
<vehicle id="ne_230" type="type1" route="ne" depart="170.11319924170374" />
<vehicle id="wn_231" type="type1" route="wn" depart="172.31455411615963" />
<vehicle id="en_232" type="type1" route="en" depart="173.0508844825612" />
<vehicle id="en_233" type="type1" route="en" depart="175.20744122910935" />
<vehicle id="ws_234" type="type1" route="ws" depart="176.39684600854605" />
<vehicle id="nw_235" type="type1" route="nw" depart="176.64439087827145" />
<vehicle id="ew_236" type="type1" route="ew" depart="177.397141197017" />
<vehicle id="ws_237" type="type1" route="ws" depart="178.42443684300466" />
<vehicle id="es_238" type="type1" route="es" depart="180.09684241172837" />
<vehicle id="sn_239" type="type1" route="sn" depart="180.97098296302804" />
<vehicle id="we_240" type="type1" route="we" depart="183.75119702804903" />
<vehicle id="se_241" type="type1" route="se" depart="184.73011713277594" />
<vehicle id="sn_242" type="type1" route="sn" depart="184.94537916813954" />
<vehicle id="ws_243" type="type1" route="ws" depart="185.13513760440398" />
<vehicle id="nw_244" type="type1" route="nw" depart="185.42708317634174" />
<vehicle id="we_245" type="type1" route="we" depart="186.1744643196463" />
<vehicle id="ne_246" type="type1" route="ne" depart="186.6474844874899" />
<vehicle id="se_247" type="type1" route="se" depart="187.20582334532662" />
<vehicle id="ws_248" type="type1" route="ws" depart="187.33002186040568" />
<vehicle id="en_249" type="type1" route="en" depart="187.87049203043554" />
<vehicle id="ew_250" type="type1" route="ew" depart="188.45647796695079" />
<vehicle id="wn_251" type="type1" route="wn" depart="188.83018950374657" />
<vehicle id="sw_252" type="type1" route="sw" depart="189.39798325349224" />
<vehicle id="we_253" type="type1" route="we" depart="190.28805652888383" />
<vehicle id="ws_254" type="type1" route="ws" depart="190.5204533301209" />
<vehicle id="nw_255" type="type1" route="nw" depart="192.0466783091295" />
<vehicle id="ne_256" type="type1" route="ne" depart="193.55977041848266" />
<vehicle id="sw_257" type="type1" route="sw" depart="194.0716838488041" />
<vehicle id="se_258" type="type1" route="se" depart="194.19803463161986" />
<vehicle id="ns_259" type="type1" route="ns" depart="194.98845903592996" />
<vehicle id="ws_260" type="type1" route="ws" depart="196.3033127867162" />
<vehicle id="ne_261" type="type1" route="ne" depart="197.52242153452374" />
<vehicle id="ew_262" type="type1" route="ew" depart="197.596694391997" />
<vehicle id="we_263" type="type1" route="we" depart="200.25664931775898" />
<vehicle id="wn_264" type="type1" route="wn" depart="200.34902647305137" />
<vehicle id="ws_265" type="type1" route="ws" depart="201.14199059961666" />
<vehicle id="ns_266" type="type1" route="ns" depart="201.2905985793798" />
<vehicle id="ew_267" type="type1" route="ew" depart="201.37171313350063" />
<vehicle id="se_268" type="type1" route="se" depart="202.0508852243994" />
<vehicle id="ws_269" type="type1" route="ws" depart="202.28806904573509" />
<vehicle id="we_270" type="type1" route="we" depart="202.99462327508425" />
<vehicle id="ws_271" type="type1" route="ws" depart="203.24862392557912" />
<vehicle id="we_272" type="type1" route="we" depart="203.7030780608475" />
<vehicle id="en_273" type="type1" route="en" depart="203.9700466222818" />
<vehicle id="se_274" type="type1" route="se" depart="204.16951346088973" />
<vehicle id="sw_275" type="type1" route="sw" depart="204.7575006333012" />
<vehicle id="we_276" type="type1" route="we" depart="207.6662576533726" />
<vehicle id="we_277" type="type1" route="we" depart="208.0593075693194" />
<vehicle id="en_278" type="type1" route="en" depart="209.2073130001396" />
<vehicle id="sw_279" type="type1" route="sw" depart="209.93456158436476" />
<vehicle id="nw_280" type="type1" route="nw" depart="211.8600064915384" />
<vehicle id="wn_281" type="type1" route="wn" depart="212.94592562760712" />
<vehicle id="ns_282" type="type1" route="ns" depart="214.70681887360564" />
<vehicle id="sn_283" type="type1" route="sn" depart="214.7344348953943" />
<vehicle id="en_284" type="type1" route="en" depart="216.54546893662678" />
<vehicle id="sn_285" type="type1" route="sn" depart="217.6496813051004" />
<vehicle id="nw_286" type="type1" route="nw" depart="219.42281739071686" />
<vehicle id="we_287" type="type1" route="we" depart="219.5011373683812" />
<vehicle id="ew_288" type="type1" route="ew" depart="219.50644933000265" />
<vehicle id="es_289" type="type1" route="es" depart="219.96951537530958" />
<vehicle id="sn_290" type="type1" route="sn" depart="221.13021148485612" />
<vehicle id="ew_291" type="type1" route="ew" depart="221.2654720604272" />
<vehicle id="we_292" type="type1" route="we" depart="221.85887153888817" />
<vehicle id="ws_293" type="type1" route="ws" depart="222.57185739778942" />
<vehicle id="ne_294" type="type1" route="ne" depart="226.17775195458913" />
<vehicle id="es_295" type="type1" route="es" depart="226.26866864711994" />
<vehicle id="ns_296" type="type1" route="ns" depart="226.40056874769718" />
<vehicle id="se_297" type="type1" route="se" depart="226.6021945883186" />
<vehicle id="ns_298" type="type1" route="ns" depart="227.28014011351036" />
<vehicle id="nw_299" type="type1" route="nw" depart="227.33736751086795" />
<vehicle id="ns_300" type="type1" route="ns" depart="228.02644369249995" />
<vehicle id="sw_301" type="type1" route="sw" depart="228.72239595988628" />
<vehicle id="ne_302" type="type1" route="ne" depart="230.87769110701726" />
<vehicle id="ws_303" type="type1" route="ws" depart="233.03372067232678" />
<vehicle id="wn_304" type="type1" route="wn" depart="233.37309775078117" />
<vehicle id="ns_305" type="type1" route="ns" depart="234.81800537769206" />
<vehicle id="ns_306" type="type1" route="ns" depart="237.3239306704963" />
<vehicle id="sn_307" type="type1" route="sn" depart="237.45820152360702" />
<vehicle id="se_308" type="type1" route="se" depart="237.47408149928046" />
<vehicle id="sn_309" type="type1" route="sn" depart="241.35046735300668" />
<vehicle id="we_310" type="type1" route="we" depart="241.46545370032362" />
<vehicle id="sn_311" type="type1" route="sn" depart="241.67371678274947" />
<vehicle id="es_312" type="type1" route="es" depart="241.72110767192285" />
<vehicle id="nw_313" type="type1" route="nw" depart="242.23666827847683" />
<vehicle id="en_314" type="type1" route="en" depart="242.80796231011735" />
<vehicle id="wn_315" type="type1" route="wn" depart="243.49182083452584" />
<vehicle id="es_316" type="type1" route="es" depart="244.4581764017367" />
<vehicle id="sw_317" type="type1" route="sw" depart="246.79537074870962" />
<vehicle id="wn_318" type="type1" route="wn" depart="246.97128628670586" />
<vehicle id="sw_319" type="type1" route="sw" depart="247.43667159584638" />
<vehicle id="we_320" type="type1" route="we" depart="248.0433686280088" />
<vehicle id="sn_321" type="type1" route="sn" depart="248.40925636900766" />
<vehicle id="en_322" type="type1" route="en" depart="248.8816864749819" />
<vehicle id="wn_323" type="type1" route="wn" depart="248.94115241018233" />
<vehicle id="ne_324" type="type1" route="ne" depart="249.7981072070058" />
<vehicle id="ne_325" type="type1" route="ne" depart="250.14885182343025" />
<vehicle id="se_326" type="type1" route="se" depart="250.26017418342934" />
<vehicle id="es_327" type="type1" route="es" depart="250.5383647156269" />
<vehicle id="en_328" type="type1" route="en" depart="250.7858150370559" />
<vehicle id="sn_329" type="type1" route="sn" depart="251.06007948604773" />
<vehicle id="sw_330" type="type1" route="sw" depart="251.8792591291599" />
<vehicle id="ne_331" type="type1" route="ne" depart="252.6615660533058" />
<vehicle id="sn_332" type="type1" route="sn" depart="252.9812998959557" />
<vehicle id="ew_333" type="type1" route="ew" depart="253.00993538668214" />
<vehicle id="we_334" type="type1" route="we" depart="253.20509021950897" />
<vehicle id="es_335" type="type1" route="es" depart="253.2378971168376" />
<vehicle id="es_336" type="type1" route="es" depart="253.33101633804745" />
<vehicle id="we_337" type="type1" route="we" depart="253.90120613283702" />
<vehicle id="en_338" type="type1" route="en" depart="254.20993759433176" />
<vehicle id="ws_339" type="type1" route="ws" depart="254.9723072430812" />
<vehicle id="sn_340" type="type1" route="sn" depart="255.66304351731975" />
<vehicle id="es_341" type="type1" route="es" depart="259.52030926452807" />
<vehicle id="sw_342" type="type1" route="sw" depart="259.8615308726959" />
<vehicle id="ws_343" type="type1" route="ws" depart="260.362181254671" />
<vehicle id="es_344" type="type1" route="es" depart="260.8942415556049" />
<vehicle id="ns_345" type="type1" route="ns" depart="263.96017438827835" />
<vehicle id="ws_346" type="type1" route="ws" depart="264.26441806169726" />
<vehicle id="sn_347" type="type1" route="sn" depart="264.9518751040869" />
<vehicle id="sn_348" type="type1" route="sn" depart="265.40021596702036" />
<vehicle id="nw_349" type="type1" route="nw" depart="265.8723730659456" />
<vehicle id="sw_350" type="type1" route="sw" depart="267.4100515820628" />
<vehicle id="es_351" type="type1" route="es" depart="268.0050213804955" />
<vehicle id="ws_352" type="type1" route="ws" depart="268.81480647766784" />
<vehicle id="ws_353" type="type1" route="ws" depart="269.2364645361178" />
<vehicle id="ws_354" type="type1" route="ws" depart="269.4828184700099" />
<vehicle id="sn_355" type="type1" route="sn" depart="271.8675562143373" />
<vehicle id="ns_356" type="type1" route="ns" depart="272.37502152802466" />
<vehicle id="en_357" type="type1" route="en" depart="272.4878866644108" />
<vehicle id="wn_358" type="type1" route="wn" depart="272.72876375595075" />
<vehicle id="sn_359" type="type1" route="sn" depart="274.2801955415908" />
<vehicle id="ne_360" type="type1" route="ne" depart="275.94243537320125" />
<vehicle id="es_361" type="type1" route="es" depart="278.6590458709656" />
<vehicle id="ws_362" type="type1" route="ws" depart="281.4079158235941" />
<vehicle id="wn_363" type="type1" route="wn" depart="281.5853053801963" />
<vehicle id="ws_364" type="type1" route="ws" depart="281.6279579796443" />
<vehicle id="we_365" type="type1" route="we" depart="282.5391387460412" />
<vehicle id="sn_366" type="type1" route="sn" depart="282.58265510573364" />
<vehicle id="ws_367" type="type1" route="ws" depart="283.313181857586" />
<vehicle id="we_368" type="type1" route="we" depart="284.0294097353107" />
<vehicle id="en_369" type="type1" route="en" depart="284.07353500349404" />
<vehicle id="en_370" type="type1" route="en" depart="284.8463006420896" />
<vehicle id="ws_371" type="type1" route="ws" depart="285.1087686986684" />
<vehicle id="ew_372" type="type1" route="ew" depart="285.29352675731656" />
<vehicle id="ws_373" type="type1" route="ws" depart="285.57189803592286" />
<vehicle id="en_374" type="type1" route="en" depart="286.0503265294197" />
<vehicle id="we_375" type="type1" route="we" depart="286.20278558526206" />
<vehicle id="ne_376" type="type1" route="ne" depart="286.22656068596893" />
<vehicle id="sw_377" type="type1" route="sw" depart="286.3009469786659" />
<vehicle id="nw_378" type="type1" route="nw" depart="286.6388076296632" />
<vehicle id="ws_379" type="type1" route="ws" depart="287.6158518021212" />
<vehicle id="we_380" type="type1" route="we" depart="288.1754667907806" />
<vehicle id="wn_381" type="type1" route="wn" depart="288.5354351359681" />
<vehicle id="en_382" type="type1" route="en" depart="289.33665028766245" />
<vehicle id="ws_383" type="type1" route="ws" depart="290.07930212244895" />
<vehicle id="wn_384" type="type1" route="wn" depart="290.0849665278772" />
<vehicle id="ew_385" type="type1" route="ew" depart="291.51597291613996" />
<vehicle id="sn_386" type="type1" route="sn" depart="291.58033973101516" />
<vehicle id="wn_387" type="type1" route="wn" depart="292.1146296742503" />