<routes>
            <vType id="type1" accel="0.8" decel="4.5" sigma="0.5" length="5" maxSpeed="70"/>
            <vType id="rescue" vClass="emergency" speedFactor="1.5" guiShape="emergency">
                <param key="has.bluelight.device" value="true"/>
            </vType>
            <route id="ne" edges="ni eo"/>
            <route id="ns" edges="ni so"/>
            <route id="nw" edges="ni wo"/>
            <route id="en" edges="ei no"/>
            <route id="es" edges="ei so"/>
            <route id="ew" edges="ei wo"/>
            <route id="sn" edges="si no"/>
            <route id="se" edges="si eo"/>
            <route id="sw" edges="si wo"/>
            <route id="wn" edges="wi no"/>
            <route id="we" edges="wi eo"/>
            <route id="ws" edges="wi so"/>
        <vehicle id="type1_1" type="type1" route="ns" depart="5.014037089682817" />
<vehicle id="type1_2" type="type1" route="wn" depart="8.026133876711764" />
<vehicle id="type1_3" type="type1" route="sn" depart="8.286231078798203" />
<vehicle id="type1_4" type="type1" route="sn" depart="11.383400624840704" />
<vehicle id="type1_5" type="type1" route="wn" depart="11.45664755668584" />
<vehicle id="type1_6" type="type1" route="se" depart="12.572035644388492" />
<vehicle id="type1_7" type="type1" route="sn" depart="12.86412858851477" />
<vehicle id="type1_8" type="type1" route="nw" depart="14.211694119689106" />
<vehicle id="type1_9" type="type1" route="sn" depart="15.229645298860687" />
<vehicle id="type1_10" type="type1" route="we" depart="15.329237516868227" />
<vehicle id="type1_11" type="type1" route="we" depart="15.940487067710867" />
<vehicle id="type1_12" type="type1" route="ns" depart="17.252430031619433" />
<vehicle id="type1_13" type="type1" route="ws" depart="18.15856005505131" />
<vehicle id="type1_14" type="type1" route="se" depart="21.515813534854612" />
<vehicle id="type1_15" type="type1" route="es" depart="22.934042041931434" />
<vehicle id="type1_16" type="type1" route="en" depart="24.684002933425433" />
<vehicle id="type1_17" type="type1" route="es" depart="25.768349301860255" />
<vehicle id="type1_18" type="type1" route="ns" depart="25.820205337175143" />
<vehicle id="type1_19" type="type1" route="ne" depart="28.521624669646727" />
<vehicle id="type1_20" type="type1" route="es" depart="33.66804413984773" />
<vehicle id="type1_21" type="type1" route="sw" depart="38.95918454320564" />
<vehicle id="type1_22" type="type1" route="es" depart="38.99420003534215" />
<vehicle id="type1_23" type="type1" route="sw" depart="39.00585684857121" />
<vehicle id="type1_24" type="type1" route="se" depart="47.38893250817483" />
<vehicle id="type1_25" type="type1" route="se" depart="48.62859265337812" />
<vehicle id="type1_26" type="type1" route="wn" depart="48.788787977939045" />
<vehicle id="type1_27" type="type1" route="nw" depart="53.60408894905969" />
<vehicle id="type1_28" type="type1" route="ew" depart="54.78092920424435" />
<vehicle id="type1_29" type="type1" route="es" depart="59.1675688064321" />
<vehicle id="type1_30" type="type1" route="sn" depart="63.375672182106214" />
<vehicle id="type1_31" type="type1" route="sw" depart="64.2669661520312" />
<vehicle id="type1_32" type="type1" route="nw" depart="65.74019241720481" />
<vehicle id="type1_33" type="type1" route="en" depart="66.87138885527311" />
<vehicle id="type1_34" type="type1" route="se" depart="68.13607680288469" />
<vehicle id="type1_35" type="type1" route="ws" depart="69.8068944737871" />
<vehicle id="type1_36" type="type1" route="we" depart="70.73853549958743" />
<vehicle id="type1_37" type="type1" route="en" depart="73.20144777374784" />
<vehicle id="type1_38" type="type1" route="sw" depart="75.2465333123547" />
<vehicle id="type1_39" type="type1" route="en" depart="76.78620582812687" />
<vehicle id="type1_40" type="type1" route="es" depart="77.20321750093407" />
<vehicle id="type1_41" type="type1" route="ne" depart="84.00964504154358" />
<vehicle id="type1_42" type="type1" route="en" depart="86.51908784895417" />
<vehicle id="type1_43" type="type1" route="nw" depart="86.77554909009135" />
<vehicle id="type1_44" type="type1" route="ne" depart="89.3297258534781" />
<vehicle id="type1_45" type="type1" route="ns" depart="90.1725286299977" />
<vehicle id="type1_46" type="type1" route="we" depart="91.29669832689791" />
<vehicle id="type1_47" type="type1" route="ne" depart="91.72547404677796" />
<vehicle id="type1_48" type="type1" route="en" depart="93.34427778405606" />
<vehicle id="type1_49" type="type1" route="es" depart="96.85532806153229" />
<vehicle id="type1_50" type="type1" route="sw" depart="97.83616272646144" />
<vehicle id="type1_51" type="type1" route="we" depart="97.97751479028321" />
<vehicle id="type1_52" type="type1" route="we" depart="98.49523040609358" />
<vehicle id="type1_53" type="type1" route="se" depart="101.97407453089636" />
<vehicle id="type1_54" type="type1" route="ew" depart="105.06614999419983" />
<vehicle id="type1_55" type="type1" route="en" depart="106.67790714146435" />
<vehicle id="type1_56" type="type1" route="ew" depart="114.51818743072288" />
<vehicle id="type1_57" type="type1" route="sw" depart="117.73914390201304" />
<vehicle id="type1_58" type="type1" route="se" depart="120.02397794866025" />
<vehicle id="type1_59" type="type1" route="ne" depart="121.55674253952728" />
<vehicle id="type1_60" type="type1" route="ns" depart="122.56206023738442" />
<vehicle id="type1_61" type="type1" route="sw" depart="122.75214763453269" />
<vehicle id="type1_62" type="type1" route="nw" depart="124.19241181793191" />
<vehicle id="type1_63" type="type1" route="es" depart="124.96169681771013" />
<vehicle id="type1_64" type="type1" route="sw" depart="128.22050899152114" />
<vehicle id="type1_65" type="type1" route="nw" depart="130.73150138741912" />
<vehicle id="type1_66" type="type1" route="sw" depart="130.75118100479975" />
<vehicle id="type1_67" type="type1" route="es" depart="131.32080449620935" />
<vehicle id="type1_68" type="type1" route="es" depart="133.3199932412834" />
<vehicle id="type1_69" type="type1" route="sw" depart="139.9708223944247" />
<vehicle id="type1_70" type="type1" route="se" depart="141.1276676470144" />
<vehicle id="type1_71" type="type1" route="ne" depart="142.63047217843442" />
<vehicle id="type1_72" type="type1" route="es" depart="146.3319418333985" />
<vehicle id="type1_73" type="type1" route="ws" depart="159.23495399890234" />
<vehicle id="type1_74" type="type1" route="ws" depart="159.43111676103598" />
<vehicle id="type1_75" type="type1" route="sw" depart="159.52007925085184" />
<vehicle id="type1_76" type="type1" route="en" depart="159.91119576411134" />
<vehicle id="type1_77" type="type1" route="en" depart="160.12644397548252" />
<vehicle id="type1_78" type="type1" route="ns" depart="161.1302521066623" />
<vehicle id="type1_79" type="type1" route="sw" depart="162.81761253603472" />
<vehicle id="type1_80" type="type1" route="ns" depart="163.8504611748501" />
<vehicle id="type1_81" type="type1" route="se" depart="166.6153722660278" />
<vehicle id="type1_82" type="type1" route="ns" depart="177.91129530971568" />
<vehicle id="type1_83" type="type1" route="ns" depart="180.1738395617079" />
<vehicle id="type1_84" type="type1" route="sw" depart="180.22617522761104" />
<vehicle id="type1_85" type="type1" route="sw" depart="183.79161879429964" />
<vehicle id="type1_86" type="type1" route="sn" depart="189.13206926439128" />
<vehicle id="type1_87" type="type1" route="ne" depart="190.4830196455763" />
<vehicle id="type1_88" type="type1" route="ne" depart="191.88817263126884" />
<vehicle id="type1_89" type="type1" route="wn" depart="192.16583906266843" />
<vehicle id="type1_90" type="type1" route="ew" depart="195.53294173364094" />
<vehicle id="type1_91" type="type1" route="ne" depart="196.15326457683332" />
<vehicle id="type1_92" type="type1" route="ns" depart="199.3986829039868" />
<vehicle id="type1_93" type="type1" route="sw" depart="199.5580407094846" />
<vehicle id="type1_94" type="type1" route="se" depart="201.77226433018257" />
<vehicle id="type1_95" type="type1" route="sw" depart="202.06199990874256" />
<vehicle id="type1_96" type="type1" route="ws" depart="207.01187054667764" />
<vehicle id="type1_97" type="type1" route="ws" depart="208.6539799669517" />
<vehicle id="type1_98" type="type1" route="en" depart="209.98337086743084" />
<vehicle id="type1_99" type="type1" route="ew" depart="210.92141575344132" />
<vehicle id="type1_100" type="type1" route="es" depart="212.18574861948863" />
<vehicle id="type1_101" type="type1" route="sn" depart="218.36816005043428" />
<vehicle id="type1_102" type="type1" route="ws" depart="220.6141373769605" />
<vehicle id="type1_103" type="type1" route="ws" depart="221.392371106936" />
<vehicle id="type1_104" type="type1" route="ws" depart="221.5946661537842" />
<vehicle id="type1_105" type="type1" route="en" depart="224.05786236116495" />
<vehicle id="type1_106" type="type1" route="ne" depart="224.28002758623035" />
<vehicle id="type1_107" type="type1" route="ns" depart="226.3187190128784" />
<vehicle id="type1_108" type="type1" route="sn" depart="227.8159549565545" />
<vehicle id="type1_109" type="type1" route="ew" depart="229.19350021903603" />
<vehicle id="type1_110" type="type1" route="ew" depart="238.77282041778335" />
<vehicle id="type1_111" type="type1" route="se" depart="239.07185949910988" />
<vehicle id="type1_112" type="type1" route="wn" depart="240.34326407265695" />
<vehicle id="type1_113" type="type1" route="ws" depart="241.4910526461431" />
<vehicle id="type1_114" type="type1" route="sn" depart="241.64398687352772" />
<vehicle id="type1_115" type="type1" route="wn" depart="244.9445976559722" />
<vehicle id="type1_116" type="type1" route="wn" depart="246.38569479853425" />
<vehicle id="type1_117" type="type1" route="es" depart="250.2024600548125" />
<vehicle id="type1_118" type="type1" route="sw" depart="250.7861805769166" />
<vehicle id="type1_119" type="type1" route="ew" depart="251.69849478165582" />
<vehicle id="type1_120" type="type1" route="sw" depart="251.98606254076387" />
<vehicle id="type1_121" type="type1" route="we" depart="252.78677087115406" />
<vehicle id="type1_122" type="type1" route="se" depart="253.11293670691393" />
<vehicle id="type1_123" type="type1" route="en" depart="255.15772623556035" />
<vehicle id="type1_124" type="type1" route="sw" depart="255.26205622027777" />
<vehicle id="type1_125" type="type1" route="wn" depart="256.7563124997465" />
<vehicle id="type1_126" type="type1" route="ws" depart="261.53220000869356" />
<vehicle id="type1_127" type="type1" route="ws" depart="262.53894734838576" />
<vehicle id="type1_128" type="type1" route="se" depart="263.0606191019458" />
<vehicle id="type1_129" type="type1" route="ew" depart="265.9213605526081" />
<vehicle id="type1_130" type="type1" route="we" depart="266.58652927064475" />
<vehicle id="type1_131" type="type1" route="en" depart="273.1254936750573" />
<vehicle id="type1_132" type="type1" route="en" depart="275.7810484841667" />
<vehicle id="type1_133" type="type1" route="ws" depart="276.4035626065624" />
<vehicle id="type1_134" type="type1" route="es" depart="280.4562244303773" />
<vehicle id="type1_135" type="type1" route="sw" depart="282.044113386261" />
<vehicle id="type1_136" type="type1" route="ws" depart="282.18792034403106" />
<vehicle id="type1_137" type="type1" route="ne" depart="284.7337714694935" />
<vehicle id="type1_138" type="type1" route="sw" depart="289.3586960161624" />
<vehicle id="type1_139" type="type1" route="nw" depart="289.3709094345641" />
<vehicle id="type1_140" type="type1" route="se" depart="291.2606512897085" />
<vehicle id="type1_141" type="type1" route="en" depart="295.0108122331594" />
<vehicle id="type1_142" type="type1" route="ws" depart="296.18052647323356" />
<vehicle id="type1_143" type="type1" route="ne" depart="298.91818194470625" />
<vehicle id="type1_144" type="type1" route="wn" depart="303.8611017034138" />
<vehicle id="type1_145" type="type1" route="sn" depart="307.98358630983927" />
<vehicle id="type1_146" type="type1" route="sn" depart="308.1303633764391" />
<vehicle id="type1_147" type="type1" route="we" depart="310.6157319743576" />
<vehicle id="type1_148" type="type1" route="se" depart="311.21168491963465" />
<vehicle id="type1_149" type="type1" route="ew" depart="319.4123989925414" />
<vehicle id="type1_150" type="type1" route="ns" depart="324.943146051456" />
<vehicle id="type1_151" type="type1" route="es" depart="326.42996693090186" />
<vehicle id="type1_152" type="type1" route="ne" depart="327.21401926351285" />
<vehicle id="type1_153" type="type1" route="en" depart="329.83196036856145" />
<vehicle id="type1_154" type="type1" route="ew" depart="330.89163332769806" />
<vehicle id="type1_155" type="type1" route="ew" depart="333.6263892776728" />
<vehicle id="type1_156" type="type1" route="ew" depart="335.37469628280303" />
<vehicle id="type1_157" type="type1" route="sw" depart="336.0364960057733" />
<vehicle id="type1_158" type="type1" route="we" depart="338.4697766028808" />
<vehicle id="type1_159" type="type1" route="sn" depart="338.8451154766924" />
<vehicle id="type1_160" type="type1" route="we" depart="341.7088104209992" />
<vehicle id="type1_161" type="type1" route="sn" depart="350.6902482731268" />
<vehicle id="type1_162" type="type1" route="en" depart="353.30249546119063" />
<vehicle id="type1_163" type="type1" route="wn" depart="354.9263076364406" />
<vehicle id="type1_164" type="type1" route="ew" depart="359.6547206952187" />
<vehicle id="type1_165" type="type1" route="se" depart="359.891044781471" />
<vehicle id="type1_166" type="type1" route="we" depart="362.4679245244743" />
<vehicle id="type1_167" type="type1" route="ne" depart="364.3375109858786" />
<vehicle id="type1_168" type="type1" route="wn" depart="365.23611178605336" />
<vehicle id="type1_169" type="type1" route="ne" depart="368.65040901395" />
<vehicle id="type1_170" type="type1" route="we" depart="371.95351396611926" />
<vehicle id="type1_171" type="type1" route="se" depart="373.53421616718225" />
<vehicle id="type1_172" type="type1" route="en" depart="375.78275138074946" />
<vehicle id="type1_173" type="type1" route="se" depart="384.64791185048716" />
<vehicle id="type1_174" type="type1" route="nw" depart="385.57625076646235" />
<vehicle id="type1_175" type="type1" route="we" depart="386.8174856568029" />
<vehicle id="type1_176" type="type1" route="ws" depart="388.4517074338429" />
<vehicle id="type1_177" type="type1" route="en" depart="393.53192394548114" />
<vehicle id="type1_178" type="type1" route="ew" depart="393.66927901330337" />
<vehicle id="type1_179" type="type1" route="ws" depart="397.31196079981527" />
<vehicle id="type1_180" type="type1" route="ws" depart="398.16262145969625" />
<vehicle id="type1_181" type="type1" route="we" depart="400.6212589393059" />
<vehicle id="type1_182" type="type1" route="sw" depart="400.9260709884598" />
<vehicle id="type1_183" type="type1" route="en" depart="407.4618705516853" />
<vehicle id="type1_184" type="type1" route="ws" depart="407.5973189305862" />
<vehicle id="type1_185" type="type1" route="ew" depart="408.87097433494114" />
<vehicle id="type1_186" type="type1" route="ew" depart="413.7251448908262" />
<vehicle id="type1_187" type="type1" route="sw" depart="413.83768915670504" />
<vehicle id="type1_188" type="type1" route="ws" depart="416.56503689530865" />
<vehicle id="type1_189" type="type1" route="sn" depart="417.8153025770818" />
<vehicle id="type1_190" type="type1" route="we" depart="419.834387963203" />
<vehicle id="type1_191" type="type1" route="sw" depart="420.47443959586184" />
<vehicle id="type1_192" type="type1" route="ns" depart="421.9075382327845" />
<vehicle id="type1_193" type="type1" route="sn" depart="422.09059395195084" />
<vehicle id="type1_194" type="type1" route="en" depart="422.8760354398421" />
<vehicle id="type1_195" type="type1" route="wn" depart="423.257664462951" />
<vehicle id="type1_196" type="type1" route="ne" depart="423.82489717384095" />
<vehicle id="type1_197" type="type1" route="ne" depart="423.981535166479" />
<vehicle id="type1_198" type="type1" route="we" depart="425.62624536158796" />
<vehicle id="type1_199" type="type1" route="es" depart="425.7990075093847" />
<vehicle id="type1_200" type="type1" route="ew" depart="425.8764214395646" />
<vehicle id="type1_201" type="type1" route="sw" depart="427.95482556635915" />
<vehicle id="type1_202" type="type1" route="es" depart="430.1636858936686" />
<vehicle id="type1_203" type="type1" route="ew" depart="438.60981996323767" />
<vehicle id="type1_204" type="type1" route="se" depart="440.39365504144945" />
<vehicle id="type1_205" type="type1" route="sn" depart="440.8940139960717" />
<vehicle id="type1_206" type="type1" route="sw" depart="441.6992281055681" />
<vehicle id="type1_207" type="type1" route="ns" depart="449.4280888708018" />
<vehicle id="type1_208" type="type1" route="en" depart="450.17595826529725" />
<vehicle id="type1_209" type="type1" route="en" depart="450.87359598583515" />
<vehicle id="type1_210" type="type1" route="sn" depart="453.68330958378334" />
<vehicle id="type1_211" type="type1" route="en" depart="454.0766213945208" />
<vehicle id="type1_212" type="type1" route="wn" depart="458.961354050827" />
<vehicle id="type1_213" type="type1" route="wn" depart="459.5554804083021" />
<vehicle id="type1_214" type="type1" route="en" depart="460.0593421284421" />
<vehicle id="type1_215" type="type1" route="ew" depart="466.1159642160544" />
<vehicle id="type1_216" type="type1" route="se" depart="467.69422347313684" />
<vehicle id="type1_217" type="type1" route="se" depart="469.17403096421157" />
<vehicle id="type1_218" type="type1" route="nw" depart="471.0637499230001" />
<vehicle id="type1_219" type="type1" route="wn" depart="473.6643455027893" />
<vehicle id="type1_220" type="type1" route="ew" depart="473.80435309359905" />
<vehicle id="type1_221" type="type1" route="ew" depart="482.04181166732684" />
<vehicle id="type1_222" type="type1" route="nw" depart="485.24399528361675" />
<vehicle id="type1_223" type="type1" route="sw" depart="489.0398363869274" />
<vehicle id="type1_224" type="type1" route="ne" depart="496.4400140061082" />
<vehicle id="type1_225" type="type1" route="ne" depart="497.1838338738378" />
<vehicle id="type1_226" type="type1" route="ne" depart="497.3340574671108" />
<vehicle id="type1_227" type="type1" route="ew" depart="500.19863064933986" />
<vehicle id="type1_228" type="type1" route="ew" depart="501.5388031389266" />
<vehicle id="type1_229" type="type1" route="es" depart="502.9630493822043" />
<vehicle id="type1_230" type="type1" route="sw" depart="504.2110003225513" />
<vehicle id="type1_231" type="type1" route="wn" depart="508.3779758985332" />
<vehicle id="type1_232" type="type1" route="en" depart="510.08827507967464" />
<vehicle id="type1_233" type="type1" route="nw" depart="510.8660121048856" />
<vehicle id="type1_234" type="type1" route="ws" depart="514.2813241667205" />
<vehicle id="type1_235" type="type1" route="se" depart="515.0013629715879" />
<vehicle id="type1_236" type="type1" route="nw" depart="516.2968686419982" />
<vehicle id="type1_237" type="type1" route="ew" depart="517.8022214493477" />
<vehicle id="type1_238" type="type1" route="en" depart="518.5937259813811" />
<vehicle id="type1_239" type="type1" route="es" depart="519.0748266481933" />
<vehicle id="type1_240" type="type1" route="sn" depart="519.6672312232781" />
<vehicle id="type1_241" type="type1" route="ew" depart="521.8320295466808" />
<vehicle id="type1_242" type="type1" route="en" depart="521.9348854879778" />
<vehicle id="type1_243" type="type1" route="ne" depart="522.5215344886799" />
<vehicle id="type1_244" type="type1" route="nw" depart="522.9865798766815" />
<vehicle id="type1_245" type="type1" route="sw" depart="525.4227966648406" />
<vehicle id="type1_246" type="type1" route="es" depart="526.5019310474945" />
<vehicle id="type1_247" type="type1" route="nw" depart="529.7339880121681" />
<vehicle id="type1_248" type="type1" route="nw" depart="529.9378701345395" />
<vehicle id="type1_249" type="type1" route="wn" depart="530.7512327814808" />
<vehicle id="type1_250" type="type1" route="sw" depart="531.6855895768609" />
<vehicle id="type1_251" type="type1" route="se" depart="531.7277662324311" />
<vehicle id="type1_252" type="type1" route="sw" depart="532.4841972303426" />
<vehicle id="type1_253" type="type1" route="se" depart="532.6604378111059" />
<vehicle id="type1_254" type="type1" route="sn" depart="533.5211121668698" />
<vehicle id="type1_255" type="type1" route="en" depart="533.7442120162593" />
<vehicle id="type1_256" type="type1" route="en" depart="534.6280706742599" />
<vehicle id="type1_257" type="type1" route="we" depart="535.9046286823217" />
<vehicle id="type1_258" type="type1" route="ne" depart="537.2506750887239" />
<vehicle id="type1_259" type="type1" route="sw" depart="537.4139511163822" />
<vehicle id="type1_260" type="type1" route="ws" depart="539.1703081753551" />
<vehicle id="type1_261" type="type1" route="sn" depart="539.7268702626062" />
<vehicle id="type1_262" type="type1" route="wn" depart="541.6286356192115" />
<vehicle id="type1_263" type="type1" route="nw" depart="542.5598007431581" />
<vehicle id="type1_264" type="type1" route="es" depart="543.176558971295" />
<vehicle id="type1_265" type="type1" route="ns" depart="544.0563364412043" />
<vehicle id="type1_266" type="type1" route="en" depart="544.5423517839505" />
<vehicle id="type1_267" type="type1" route="ew" depart="544.5624267220736" />
<vehicle id="type1_268" type="type1" route="ew" depart="544.856995951956" />
<vehicle id="type1_269" type="type1" route="nw" depart="545.6972639029889" />
<vehicle id="type1_270" type="type1" route="es" depart="547.2082058942453" />
<vehicle id="type1_271" type="type1" route="wn" depart="552.464855098836" />
<vehicle id="type1_272" type="type1" route="ne" depart="558.1846335975318" />
<vehicle id="type1_273" type="type1" route="ew" depart="559.435556791931" />
<vehicle id="type1_274" type="type1" route="ne" depart="559.5751348699549" />
<vehicle id="type1_275" type="type1" route="se" depart="561.3221267953627" />
<vehicle id="type1_276" type="type1" route="nw" depart="567.0151064434655" />
<vehicle id="type1_277" type="type1" route="wn" depart="567.0413315863191" />
<vehicle id="type1_278" type="type1" route="en" depart="567.5808366744964" />
<vehicle id="type1_279" type="type1" route="se" depart="569.8190903935475" />
<vehicle id="type1_280" type="type1" route="we" depart="574.1523469977201" />
<vehicle id="type1_281" type="type1" route="se" depart="576.1384117665484" />
<vehicle id="type1_282" type="type1" route="ws" depart="577.6407398622729" />
<vehicle id="type1_283" type="type1" route="ws" depart="581.9770380167645" />
<vehicle id="type1_284" type="type1" route="sw" depart="584.7115309808396" />
<vehicle id="type1_285" type="type1" route="se" depart="586.0202332289927" />
<vehicle id="type1_286" type="type1" route="ns" depart="586.258661824773" />
<vehicle id="type1_287" type="type1" route="se" depart="586.6741485798985" />
<vehicle id="type1_288" type="type1" route="nw" depart="586.744574440419" />
<vehicle id="type1_289" type="type1" route="sw" depart="586.784387906197" />
<vehicle id="type1_290" type="type1" route="nw" depart="589.4567954408444" />
<vehicle id="type1_291" type="type1" route="sn" depart="591.3037002622059" />
<vehicle id="type1_292" type="type1" route="en" depart="595.0665408468483" />
<vehicle id="type1_293" type="type1" route="se" depart="595.316525546435" />
<vehicle id="type1_294" type="type1" route="nw" depart="597.8838447233335" />
<vehicle id="type1_295" type="type1" route="we" depart="599.2965091968088" />
<vehicle id="type1_296" type="type1" route="en" depart="599.8768885072182" />
<vehicle id="type1_297" type="type1" route="ne" depart="601.1207072133836" />
<vehicle id="type1_298" type="type1" route="we" depart="602.1957392731637" />
<vehicle id="type1_299" type="type1" route="se" depart="604.1501951437864" />
<vehicle id="type1_300" type="type1" route="ws" depart="608.3726772772566" />
<vehicle id="type1_301" type="type1" route="ne" depart="608.4462496636789" />
<vehicle id="type1_302" type="type1" route="sn" depart="610.3410517770521" />
<vehicle id="type1_303" type="type1" route="sw" depart="611.8068553900669" />
<vehicle id="type1_304" type="type1" route="sn" depart="612.409403934698" />
<vehicle id="type1_305" type="type1" route="wn" depart="612.8033190397456" />
<vehicle id="type1_306" type="type1" route="ew" depart="615.2685135596822" />
<vehicle id="type1_307" type="type1" route="en" depart="615.9814801955255" />
<vehicle id="type1_308" type="type1" route="sn" depart="620.8042524299007" />
<vehicle id="type1_309" type="type1" route="sn" depart="626.1454152969949" />
<vehicle id="type1_310" type="type1" route="se" depart="627.0168086694158" />
<vehicle id="type1_311" type="type1" route="ne" depart="630.5016148501219" />
<vehicle id="type1_312" type="type1" route="ew" depart="630.5572382469359" />
<vehicle id="type1_313" type="type1" route="we" depart="631.9175519529331" />
<vehicle id="type1_314" type="type1" route="en" depart="632.6257801319473" />
<vehicle id="type1_315" type="type1" route="ns" depart="633.3796158490028" />
<vehicle id="type1_316" type="type1" route="ns" depart="633.9346391355781" />
<vehicle id="type1_317" type="type1" route="ws" depart="637.4120719854109" />
<vehicle id="type1_318" type="type1" route="ns" depart="637.7760339629715" />
<vehicle id="type1_319" type="type1" route="sn" depart="643.073517833853" />
<vehicle id="type1_320" type="type1" route="en" depart="644.5011403707242" />
<vehicle id="type1_321" type="type1" route="en" depart="645.783478122865" />
<vehicle id="type1_322" type="type1" route="nw" depart="646.2993560409393" />
<vehicle id="type1_323" type="type1" route="ws" depart="646.4219159364121" />
<vehicle id="type1_324" type="type1" route="en" depart="647.3812952489909" />
<vehicle id="type1_325" type="type1" route="ne" depart="648.6883845569885" />
<vehicle id="type1_326" type="type1" route="ws" depart="656.2031264038934" />
<vehicle id="type1_327" type="type1" route="es" depart="657.522155358452" />
<vehicle id="type1_328" type="type1" route="we" depart="658.1809675685635" />
<vehicle id="type1_329" type="type1" route="nw" depart="660.0530079389392" />
<vehicle id="type1_330" type="type1" route="ew" depart="660.5995392629173" />
<vehicle id="type1_331" type="type1" route="ws" depart="661.6169084680329" />
<vehicle id="type1_332" type="type1" route="sn" depart="662.0424144847555" />
<vehicle id="type1_333" type="type1" route="wn" depart="662.4745370748426" />
<vehicle id="type1_334" type="type1" route="es" depart="664.2518227844087" />
<vehicle id="type1_335" type="type1" route="ew" depart="665.8493758128085" />
<vehicle id="type1_336" type="type1" route="ne" depart="666.2280191673121" />
<vehicle id="type1_337" type="type1" route="ns" depart="666.7072054378676" />
<vehicle id="type1_338" type="type1" route="en" depart="667.1211888002163" />
<vehicle id="type1_339" type="type1" route="en" depart="669.3480498547243" />
<vehicle id="type1_340" type="type1" route="we" depart="672.8402673012854" />
<vehicle id="type1_341" type="type1" route="we" depart="675.6624880259932" />
<vehicle id="type1_342" type="type1" route="sw" depart="675.9011043734623" />
<vehicle id="type1_343" type="type1" route="we" depart="677.1764415605422" />
<vehicle id="type1_344" type="type1" route="we" depart="677.6700719230649" />
<vehicle id="type1_345" type="type1" route="ew" depart="679.587490264933" />
<vehicle id="type1_346" type="type1" route="ne" depart="679.9234444683642" />
<vehicle id="type1_347" type="type1" route="sn" depart="681.0801286153934" />
<vehicle id="type1_348" type="type1" route="we" depart="681.7440965543108" />
<vehicle id="type1_349" type="type1" route="ws" depart="683.1214048827825" />
<vehicle id="type1_350" type="type1" route="es" depart="683.713712787569" />
<vehicle id="type1_351" type="type1" route="sw" depart="686.1537258188404" />
<vehicle id="type1_352" type="type1" route="sw" depart="692.0457753357204" />
<vehicle id="type1_353" type="type1" route="ew" depart="694.2641857561906" />
<vehicle id="type1_354" type="type1" route="ew" depart="694.3720448425346" />
<vehicle id="type1_355" type="type1" route="ns" depart="694.8274973140768" />
<vehicle id="type1_356" type="type1" route="sw" depart="697.9529657315642" />
<vehicle id="type1_357" type="type1" route="es" depart="698.7022685865886" />
<vehicle id="type1_358" type="type1" route="en" depart="699.9606303920843" />
<vehicle id="type1_359" type="type1" route="wn" depart="701.9566441387523" />
<vehicle id="type1_360" type="type1" route="ws" depart="702.1144238292358" />
<vehicle id="type1_361" type="type1" route="wn" depart="702.6277535294082" />
<vehicle id="type1_362" type="type1" route="ws" depart="709.7533811434621" />
<vehicle id="type1_363" type="type1" route="sw" depart="712.6843865071464" />
<vehicle id="type1_364" type="type1" route="sw" depart="714.8085217707657" />
<vehicle id="type1_365" type="type1" route="nw" depart="716.0443140831167" />
<vehicle id="type1_366" type="type1" route="nw" depart="725.4062007191819" />
<vehicle id="type1_367" type="type1" route="nw" depart="729.3040885721291" />
<vehicle id="type1_368" type="type1" route="nw" depart="732.011305370876" />
<vehicle id="type1_369" type="type1" route="ns" depart="733.8773343266959" />
<vehicle id="type1_370" type="type1" route="sn" depart="737.8616552005204" />
<vehicle id="type1_371" type="type1" route="ew" depart="738.159677639875" />
<vehicle id="type1_372" type="type1" route="sw" depart="739.2116680910183" />
<vehicle id="type1_373" type="type1" route="es" depart="739.4953981379447" />
<vehicle id="type1_374" type="type1" route="en" depart="740.8045424395517" />