<routes>
            <vType id="type1" accel="0.8" decel="4.5" sigma="0.5" length="5" maxSpeed="70"/>
            <vType id="rescue" vClass="emergency" speedFactor="1.5" guiShape="emergency">
                <param key="has.bluelight.device" value="true"/>
            </vType>
            <route id="ne" edges="ni eo"/>
            <route id="ns" edges="ni so"/>
            <route id="nw" edges="ni wo"/>
            <route id="en" edges="ei no"/>
            <route id="es" edges="ei so"/>
            <route id="ew" edges="ei wo"/>
            <route id="sn" edges="si no"/>
            <route id="se" edges="si eo"/>
            <route id="sw" edges="si wo"/>
            <route id="wn" edges="wi no"/>
            <route id="we" edges="wi eo"/>
            <route id="ws" edges="wi so"/>
        
            <personFlow id="p_ns" begin="0" end="400" period="50">
                <walk route="ns"/>
            </personFlow>
                         
            <personFlow id="p_we" begin="0" end="400" period="50">
                <walk route="we"/>
            </personFlow>
                         
            <personFlow id="p_sn" begin="0" end="400" period="50">
                <walk route="sn"/>
            </personFlow>
                         
            <personFlow id="p_ew" begin="0" end="400" period="50">
                <walk route="ew"/>
            </personFlow>
                         <vehicle id="type1_1" type="type1" route="ws" depart="0.20626750440051142" />
<vehicle id="type1_2" type="type1" route="wn" depart="1.4048063096934935" />
<vehicle id="type1_3" type="type1" route="ne" depart="1.4845814397169554" />
<vehicle id="emv_1" type="rescue" route="sw" depart="4.194051522028526" />
<vehicle id="type1_4" type="type1" route="en" depart="4.549945594108504" />
<vehicle id="type1_5" type="type1" route="se" depart="5.6025163236908595" />
<vehicle id="type1_6" type="type1" route="se" depart="7.627897967277815" />
<vehicle id="type1_7" type="type1" route="ns" depart="8.666507526510411" />
<vehicle id="type1_8" type="type1" route="sn" depart="10.28933982623854" />
<vehicle id="type1_9" type="type1" route="sn" depart="11.900269807333341" />
<vehicle id="type1_10" type="type1" route="wn" depart="15.065766183628591" />
<vehicle id="type1_11" type="type1" route="en" depart="15.681920911643623" />
<vehicle id="type1_12" type="type1" route="se" depart="17.843980520196673" />
<vehicle id="type1_13" type="type1" route="we" depart="19.33586309158901" />
<vehicle id="type1_14" type="type1" route="sw" depart="21.60493908013397" />
<vehicle id="type1_15" type="type1" route="es" depart="21.85850457056063" />
<vehicle id="type1_16" type="type1" route="en" depart="28.179942045259807" />
<vehicle id="type1_17" type="type1" route="ws" depart="30.06523259941133" />
<vehicle id="type1_18" type="type1" route="ew" depart="30.484505074784582" />
<vehicle id="type1_19" type="type1" route="nw" depart="31.069865483831624" />
<vehicle id="type1_20" type="type1" route="es" depart="38.23207172056691" />
<vehicle id="type1_21" type="type1" route="wn" depart="42.54057388700263" />
<vehicle id="type1_22" type="type1" route="wn" depart="51.59808442087203" />
<vehicle id="type1_23" type="type1" route="ns" depart="51.828026868302494" />
<vehicle id="type1_24" type="type1" route="ns" depart="52.562580638343555" />
<vehicle id="type1_25" type="type1" route="ew" depart="58.88595408546396" />
<vehicle id="type1_26" type="type1" route="wn" depart="62.9540252163209" />
<vehicle id="type1_27" type="type1" route="wn" depart="69.17510357042498" />
<vehicle id="type1_28" type="type1" route="ne" depart="69.18500310769782" />
<vehicle id="type1_29" type="type1" route="we" depart="69.41792935877747" />
<vehicle id="type1_30" type="type1" route="ew" depart="71.99954698651577" />
<vehicle id="type1_31" type="type1" route="wn" depart="74.18156102970202" />
<vehicle id="type1_32" type="type1" route="ws" depart="74.38801211584557" />
<vehicle id="type1_33" type="type1" route="es" depart="75.00386837064616" />
<vehicle id="type1_34" type="type1" route="en" depart="75.84670782253464" />
<vehicle id="type1_35" type="type1" route="ns" depart="84.05744759509722" />
<vehicle id="type1_36" type="type1" route="wn" depart="84.71447358020393" />
<vehicle id="type1_37" type="type1" route="ns" depart="85.34984483302368" />
<vehicle id="type1_38" type="type1" route="wn" depart="89.72512698658338" />
<vehicle id="type1_39" type="type1" route="sw" depart="95.03967966777749" />
<vehicle id="type1_40" type="type1" route="se" depart="96.19223665238015" />
<vehicle id="type1_41" type="type1" route="nw" depart="101.1140140730244" />
<vehicle id="type1_42" type="type1" route="es" depart="103.42223520738945" />
<vehicle id="type1_43" type="type1" route="ws" depart="104.404223165485" />
<vehicle id="type1_44" type="type1" route="ew" depart="107.35178899309378" />
<vehicle id="type1_45" type="type1" route="ew" depart="109.6887358754997" />
<vehicle id="type1_46" type="type1" route="nw" depart="111.35652229494977" />
<vehicle id="type1_47" type="type1" route="ws" depart="113.25200378014563" />
<vehicle id="type1_48" type="type1" route="ws" depart="113.60664620018316" />
<vehicle id="type1_49" type="type1" route="ns" depart="114.00123228842868" />
<vehicle id="type1_50" type="type1" route="ne" depart="118.73606899975208" />
<vehicle id="type1_51" type="type1" route="se" depart="119.31604935739011" />
<vehicle id="emv_2" type="rescue" route="sn" depart="119.4043365476265" />
<vehicle id="type1_52" type="type1" route="wn" depart="120.19139554805649" />
<vehicle id="type1_53" type="type1" route="nw" depart="120.4886236283102" />
<vehicle id="type1_54" type="type1" route="wn" depart="124.29490181657353" />
<vehicle id="type1_55" type="type1" route="wn" depart="125.9883699056853" />
<vehicle id="type1_56" type="type1" route="wn" depart="128.0879206017539" />
<vehicle id="type1_57" type="type1" route="es" depart="133.88888115536957" />
<vehicle id="type1_58" type="type1" route="sn" depart="133.90066465726454" />
<vehicle id="type1_59" type="type1" route="we" depart="139.2781331178522" />
<vehicle id="type1_60" type="type1" route="nw" depart="139.4178661300189" />
<vehicle id="type1_61" type="type1" route="ws" depart="144.7091342688473" />
<vehicle id="type1_62" type="type1" route="sn" depart="149.3492602396721" />
<vehicle id="type1_63" type="type1" route="ws" depart="151.52459859451318" />
<vehicle id="type1_64" type="type1" route="en" depart="154.11905605310744" />
<vehicle id="type1_65" type="type1" route="nw" depart="154.8885471213094" />
<vehicle id="type1_66" type="type1" route="ws" depart="156.11311325776924" />
<vehicle id="type1_67" type="type1" route="sw" depart="156.18259565233296" />
<vehicle id="type1_68" type="type1" route="sn" depart="157.17928567540008" />
<vehicle id="emv_3" type="rescue" route="es" depart="160.33858665455926" />
<vehicle id="type1_69" type="type1" route="ew" depart="164.79292050671395" />
<vehicle id="type1_70" type="type1" route="en" depart="165.43309015952198" />
<vehicle id="type1_71" type="type1" route="we" depart="166.55398452641595" />
<vehicle id="type1_72" type="type1" route="sn" depart="167.0024121394185" />
<vehicle id="type1_73" type="type1" route="nw" depart="167.422802819298" />
<vehicle id="type1_74" type="type1" route="se" depart="167.7886023295354" />
<vehicle id="type1_75" type="type1" route="ew" depart="167.89249024212268" />
<vehicle id="type1_76" type="type1" route="sn" depart="169.78787463320248" />
<vehicle id="type1_77" type="type1" route="sw" depart="172.6761631441286" />
<vehicle id="type1_78" type="type1" route="se" depart="174.8788921814755" />
<vehicle id="type1_79" type="type1" route="we" depart="175.9768712984246" />
<vehicle id="type1_80" type="type1" route="en" depart="176.48214305861964" />
<vehicle id="type1_81" type="type1" route="sw" depart="179.17831801081343" />
<vehicle id="type1_82" type="type1" route="se" depart="181.60849560246115" />
<vehicle id="type1_83" type="type1" route="ne" depart="182.67486743286352" />
<vehicle id="type1_84" type="type1" route="sn" depart="184.6040194927916" />
<vehicle id="type1_85" type="type1" route="en" depart="185.31798795058225" />
<vehicle id="type1_86" type="type1" route="ns" depart="186.094143853436" />
<vehicle id="type1_87" type="type1" route="es" depart="191.52530212728516" />
<vehicle id="type1_88" type="type1" route="es" depart="192.48557978823146" />
<vehicle id="type1_89" type="type1" route="se" depart="194.19179929326828" />
<vehicle id="type1_90" type="type1" route="sw" depart="199.09348642046186" />
<vehicle id="type1_91" type="type1" route="en" depart="200.9470681880477" />
<vehicle id="type1_92" type="type1" route="sn" depart="206.76038370848576" />
<vehicle id="type1_93" type="type1" route="wn" depart="208.93702219195643" />
<vehicle id="type1_94" type="type1" route="ns" depart="210.12691579682235" />
<vehicle id="emv_4" type="rescue" route="sn" depart="211.62981349780748" />
<vehicle id="type1_95" type="type1" route="ns" depart="211.78179285640866" />
<vehicle id="type1_96" type="type1" route="ws" depart="212.56831244670812" />
<vehicle id="type1_97" type="type1" route="we" depart="213.30042501768554" />
<vehicle id="type1_98" type="type1" route="ne" depart="216.1378474869338" />
<vehicle id="type1_99" type="type1" route="ew" depart="217.6664824513552" />
<vehicle id="type1_100" type="type1" route="sn" depart="218.1533754207306" />
<vehicle id="type1_101" type="type1" route="es" depart="220.83158166033277" />
<vehicle id="type1_102" type="type1" route="es" depart="222.7188247977342" />
<vehicle id="type1_103" type="type1" route="se" depart="222.81527007537858" />
<vehicle id="type1_104" type="type1" route="nw" depart="224.3637030898035" />
<vehicle id="type1_105" type="type1" route="sn" depart="226.4458879431664" />
<vehicle id="type1_106" type="type1" route="sn" depart="227.83207776997926" />
<vehicle id="type1_107" type="type1" route="sn" depart="229.00544675761793" />
<vehicle id="type1_108" type="type1" route="sw" depart="230.40770390526774" />
<vehicle id="type1_109" type="type1" route="ne" depart="233.95968869877976" />
<vehicle id="type1_110" type="type1" route="ne" depart="236.95555469327877" />
<vehicle id="type1_111" type="type1" route="ns" depart="242.51284372007686" />
<vehicle id="type1_112" type="type1" route="sw" depart="242.81426095042616" />
<vehicle id="type1_113" type="type1" route="ns" depart="243.6717698819383" />
<vehicle id="type1_114" type="type1" route="ew" depart="245.0294053256369" />
<vehicle id="type1_115" type="type1" route="se" depart="247.71127694923717" />
<vehicle id="type1_116" type="type1" route="nw" depart="252.16457844729914" />
<vehicle id="type1_117" type="type1" route="nw" depart="254.69856773372842" />
<vehicle id="type1_118" type="type1" route="es" depart="257.20749477981997" />
<vehicle id="type1_119" type="type1" route="ne" depart="257.77617964435956" />
<vehicle id="type1_120" type="type1" route="sw" depart="259.35909271296737" />
<vehicle id="type1_121" type="type1" route="we" depart="259.90988356201177" />
<vehicle id="type1_122" type="type1" route="ns" depart="268.7037755710832" />
<vehicle id="type1_123" type="type1" route="ns" depart="271.93020673318455" />
<vehicle id="type1_124" type="type1" route="wn" depart="274.34741837847145" />
<vehicle id="type1_125" type="type1" route="sn" depart="276.34909245138584" />
<vehicle id="type1_126" type="type1" route="we" depart="276.8835823368541" />
<vehicle id="type1_127" type="type1" route="we" depart="278.0906194822418" />
<vehicle id="type1_128" type="type1" route="wn" depart="278.21632941430056" />
<vehicle id="type1_129" type="type1" route="en" depart="284.33753266242945" />
<vehicle id="type1_130" type="type1" route="sw" depart="284.72603434655696" />
<vehicle id="type1_131" type="type1" route="we" depart="289.573264648043" />
<vehicle id="type1_132" type="type1" route="nw" depart="289.96277283323985" />
<vehicle id="type1_133" type="type1" route="ne" depart="290.40009703469264" />
<vehicle id="type1_134" type="type1" route="ne" depart="291.4422387028891" />
<vehicle id="type1_135" type="type1" route="sw" depart="291.5351886160025" />
<vehicle id="type1_136" type="type1" route="we" depart="294.6847303892933" />
<vehicle id="type1_137" type="type1" route="ne" depart="294.7193707214929" />
<vehicle id="type1_138" type="type1" route="en" depart="300.1839302333339" />
<vehicle id="type1_139" type="type1" route="es" depart="301.69565454167866" />
<vehicle id="type1_140" type="type1" route="en" depart="303.27236476332627" />
<vehicle id="type1_141" type="type1" route="ne" depart="304.91859093040296" />
<vehicle id="type1_142" type="type1" route="es" depart="306.6011673137621" />
<vehicle id="type1_143" type="type1" route="es" depart="309.55596289013795" />
<vehicle id="type1_144" type="type1" route="sn" depart="312.9419766854669" />
<vehicle id="type1_145" type="type1" route="ne" depart="316.452612838288" />
<vehicle id="type1_146" type="type1" route="we" depart="317.16081920050647" />
<vehicle id="type1_147" type="type1" route="es" depart="317.48512714633625" />
<vehicle id="type1_148" type="type1" route="ew" depart="323.98514143967793" />
<vehicle id="type1_149" type="type1" route="ws" depart="325.5721893730398" />
<vehicle id="type1_150" type="type1" route="se" depart="334.90378161098295" />
<vehicle id="type1_151" type="type1" route="ne" depart="335.76775956840635" />
<vehicle id="type1_152" type="type1" route="se" depart="336.1606846481742" />
<vehicle id="type1_153" type="type1" route="ns" depart="336.7299406033308" />
<vehicle id="type1_154" type="type1" route="sn" depart="338.19085708876537" />
<vehicle id="type1_155" type="type1" route="ew" depart="339.9194901777266" />
<vehicle id="type1_156" type="type1" route="ns" depart="343.9146160160569" />
<vehicle id="type1_157" type="type1" route="se" depart="351.8923735888678" />
<vehicle id="type1_158" type="type1" route="se" depart="352.1348067082063" />
<vehicle id="type1_159" type="type1" route="nw" depart="355.0880061363051" />
<vehicle id="type1_160" type="type1" route="sn" depart="355.2870852618433" />
<vehicle id="type1_161" type="type1" route="nw" depart="355.49300381717626" />
<vehicle id="type1_162" type="type1" route="ws" depart="357.0367505585463" />
<vehicle id="type1_163" type="type1" route="es" depart="357.51100546970633" />
<vehicle id="type1_164" type="type1" route="ew" depart="358.8271278142919" />
<vehicle id="type1_165" type="type1" route="ws" depart="362.52236641194764" />
<vehicle id="type1_166" type="type1" route="ns" depart="363.3526825233119" />
<vehicle id="type1_167" type="type1" route="ws" depart="363.868913469858" />
<vehicle id="type1_168" type="type1" route="en" depart="369.1616846340612" />
<vehicle id="type1_169" type="type1" route="we" depart="372.3823659416302" />
<vehicle id="type1_170" type="type1" route="se" depart="378.7746094113308" />
<vehicle id="type1_171" type="type1" route="ne" depart="379.1044726908819" />
<vehicle id="type1_172" type="type1" route="wn" depart="386.5469234877473" />
<vehicle id="type1_173" type="type1" route="we" depart="387.6598757849273" />
<vehicle id="type1_174" type="type1" route="wn" depart="392.31145632946954" />
<vehicle id="type1_175" type="type1" route="ew" depart="393.4557201318776" />
<vehicle id="type1_176" type="type1" route="ew" depart="395.62954432617846" />
<vehicle id="type1_177" type="type1" route="en" depart="400.1723464000821" />
<vehicle id="type1_178" type="type1" route="ew" depart="401.25018832467305" />
<vehicle id="type1_179" type="type1" route="ns" depart="403.19310907485607" />
<vehicle id="type1_180" type="type1" route="we" depart="405.928545615948" />
<vehicle id="type1_181" type="type1" route="we" depart="409.83867672992153" />
<vehicle id="type1_182" type="type1" route="ns" depart="411.09675286955337" />
<vehicle id="type1_183" type="type1" route="ew" depart="411.9111105320328" />
<vehicle id="type1_184" type="type1" route="we" depart="414.37931582248547" />
<vehicle id="type1_185" type="type1" route="sw" depart="418.98638638013387" />
<vehicle id="type1_186" type="type1" route="ws" depart="420.9888697067301" />
<vehicle id="type1_187" type="type1" route="sw" depart="423.71573250052705" />
<vehicle id="type1_188" type="type1" route="se" depart="425.66501544705056" />
<vehicle id="type1_189" type="type1" route="ew" depart="429.9764753074728" />
<vehicle id="type1_190" type="type1" route="es" depart="433.884978699902" />
<vehicle id="type1_191" type="type1" route="sw" depart="435.63533188714115" />
<vehicle id="type1_192" type="type1" route="ws" depart="436.1328233799129" />
<vehicle id="type1_193" type="type1" route="ns" depart="436.9986494104054" />
<vehicle id="type1_194" type="type1" route="ew" depart="438.149071930623" />
<vehicle id="type1_195" type="type1" route="ws" depart="438.3715275411648" />
<vehicle id="type1_196" type="type1" route="ns" depart="440.20795486802524" />
<vehicle id="type1_197" type="type1" route="wn" depart="441.40317161793587" />
<vehicle id="type1_198" type="type1" route="se" depart="444.3129119266869" />
<vehicle id="type1_199" type="type1" route="ns" depart="447.10409092800694" />
<vehicle id="type1_200" type="type1" route="es" depart="448.25882997528345" />
<vehicle id="type1_201" type="type1" route="ne" depart="453.51950098395673" />
<vehicle id="type1_202" type="type1" route="ew" depart="453.8258498039119" />
<vehicle id="type1_203" type="type1" route="sn" depart="455.5220981794559" />
<vehicle id="type1_204" type="type1" route="ns" depart="457.81434802509017" />
<vehicle id="type1_205" type="type1" route="en" depart="458.10263318133565" />
<vehicle id="type1_206" type="type1" route="wn" depart="459.7742976752671" />
<vehicle id="type1_207" type="type1" route="en" depart="460.78227657421854" />
<vehicle id="type1_208" type="type1" route="sw" depart="470.1675548345403" />
<vehicle id="type1_209" type="type1" route="es" depart="471.418791404008" />
<vehicle id="type1_210" type="type1" route="sn" depart="479.28411053055123" />
<vehicle id="type1_211" type="type1" route="nw" depart="479.98743443102876" />
<vehicle id="type1_212" type="type1" route="wn" depart="480.77191646688175" />
<vehicle id="emv_5" type="rescue" route="wn" depart="483.2947283869389" />
<vehicle id="type1_213" type="type1" route="ws" depart="483.30650619223417" />
<vehicle id="type1_214" type="type1" route="en" depart="483.4667470793031" />
<vehicle id="type1_215" type="type1" route="ws" depart="484.8194488931367" />
<vehicle id="type1_216" type="type1" route="se" depart="486.49380154623043" />
<vehicle id="type1_217" type="type1" route="wn" depart="486.905621548685" />
<vehicle id="type1_218" type="type1" route="es" depart="487.5511961783287" />
<vehicle id="type1_219" type="type1" route="se" depart="487.9414386921215" />
<vehicle id="type1_220" type="type1" route="sw" depart="488.3976170857609" />
<vehicle id="type1_221" type="type1" route="ne" depart="491.01315515068063" />
<vehicle id="type1_222" type="type1" route="wn" depart="495.37016582054895" />
<vehicle id="type1_223" type="type1" route="en" depart="495.66508904870864" />
<vehicle id="type1_224" type="type1" route="ns" depart="496.22466718731823" />
<vehicle id="type1_225" type="type1" route="se" depart="496.44637361635006" />
<vehicle id="type1_226" type="type1" route="sw" depart="497.5544205168245" />
<vehicle id="type1_227" type="type1" route="ws" depart="498.79569273453154" />
<vehicle id="type1_228" type="type1" route="es" depart="499.95902657253646" />
<vehicle id="type1_229" type="type1" route="nw" depart="500.57630333555085" />
<vehicle id="type1_230" type="type1" route="ew" depart="502.3634235761374" />
<vehicle id="type1_231" type="type1" route="nw" depart="503.4660694007868" />
<vehicle id="type1_232" type="type1" route="sn" depart="505.34371383602746" />
<vehicle id="type1_233" type="type1" route="sn" depart="509.72826225898785" />
<vehicle id="type1_234" type="type1" route="en" depart="510.19662336099765" />
<vehicle id="type1_235" type="type1" route="ws" depart="510.7676165286166" />
<vehicle id="type1_236" type="type1" route="ws" depart="514.9809919684537" />
<vehicle id="type1_237" type="type1" route="sw" depart="515.5425212456825" />
<vehicle id="type1_238" type="type1" route="ew" depart="516.4503425079731" />
<vehicle id="type1_239" type="type1" route="ws" depart="521.958776292775" />
<vehicle id="type1_240" type="type1" route="se" depart="522.0123512340103" />
<vehicle id="type1_241" type="type1" route="nw" depart="522.3361819649865" />
<vehicle id="emv_6" type="rescue" route="nw" depart="524.7828132385287" />
<vehicle id="type1_242" type="type1" route="en" depart="525.8545059838398" />
<vehicle id="type1_243" type="type1" route="en" depart="526.5514465755158" />
<vehicle id="type1_244" type="type1" route="se" depart="526.9174702414364" />
<vehicle id="type1_245" type="type1" route="sn" depart="528.8191631319299" />
<vehicle id="type1_246" type="type1" route="ws" depart="529.0305814249342" />
<vehicle id="type1_247" type="type1" route="ne" depart="529.0865311669309" />
<vehicle id="type1_248" type="type1" route="sw" depart="534.9732670082595" />
<vehicle id="type1_249" type="type1" route="ne" depart="535.4080639632642" />
<vehicle id="type1_250" type="type1" route="sn" depart="536.0363648367922" />
<vehicle id="type1_251" type="type1" route="we" depart="540.9429582215345" />
<vehicle id="type1_252" type="type1" route="ws" depart="542.8762889598461" />
<vehicle id="type1_253" type="type1" route="ne" depart="545.3410736865901" />
<vehicle id="type1_254" type="type1" route="se" depart="547.5702215786014" />
<vehicle id="type1_255" type="type1" route="ew" depart="548.0960751628045" />
<vehicle id="type1_256" type="type1" route="sn" depart="550.8744209178722" />
<vehicle id="type1_257" type="type1" route="sn" depart="550.9221672809424" />
<vehicle id="type1_258" type="type1" route="en" depart="561.2186693823517" />
<vehicle id="type1_259" type="type1" route="se" depart="563.0460353250879" />
<vehicle id="type1_260" type="type1" route="se" depart="564.5880523223495" />
<vehicle id="type1_261" type="type1" route="wn" depart="564.6548439264704" />
<vehicle id="type1_262" type="type1" route="se" depart="566.9602232531247" />
<vehicle id="type1_263" type="type1" route="wn" depart="570.8261225793672" />
<vehicle id="type1_264" type="type1" route="ns" depart="574.0810509033279" />
<vehicle id="type1_265" type="type1" route="wn" depart="576.173810363378" />
<vehicle id="type1_266" type="type1" route="ns" depart="577.3841094238567" />
<vehicle id="type1_267" type="type1" route="sn" depart="577.6218209812133" />
<vehicle id="type1_268" type="type1" route="es" depart="577.6719294309185" />
<vehicle id="type1_269" type="type1" route="en" depart="578.152762357519" />
<vehicle id="type1_270" type="type1" route="ns" depart="584.7143155712779" />
<vehicle id="type1_271" type="type1" route="en" depart="585.8440683385902" />
<vehicle id="type1_272" type="type1" route="ew" depart="586.8220976842983" />
<vehicle id="type1_273" type="type1" route="ne" depart="588.0653264392497" />
<vehicle id="type1_274" type="type1" route="wn" depart="588.9977432777199" />
<vehicle id="type1_275" type="type1" route="ns" depart="592.8889839135766" />
<vehicle id="type1_276" type="type1" route="es" depart="593.6253563864584" />
<vehicle id="type1_277" type="type1" route="sw" depart="594.373324479495" />
<vehicle id="type1_278" type="type1" route="ew" depart="596.6366109542954" />
<vehicle id="type1_279" type="type1" route="wn" depart="597.0370188629536" />
<vehicle id="type1_280" type="type1" route="ns" depart="599.0367757954463" />
<vehicle id="type1_281" type="type1" route="es" depart="599.6289908204033" />
<vehicle id="type1_282" type="type1" route="se" depart="602.5827390261413" />
<vehicle id="type1_283" type="type1" route="en" depart="603.2187683203633" />
<vehicle id="type1_284" type="type1" route="en" depart="603.685715326258" />
<vehicle id="type1_285" type="type1" route="en" depart="606.2032987119486" />
<vehicle id="type1_286" type="type1" route="nw" depart="606.6707480243182" />
<vehicle id="type1_287" type="type1" route="ew" depart="608.777491846903" />
<vehicle id="type1_288" type="type1" route="ns" depart="608.8636712065957" />
<vehicle id="type1_289" type="type1" route="sw" depart="611.587841618982" />
<vehicle id="type1_290" type="type1" route="en" depart="611.705053734249" />
<vehicle id="type1_291" type="type1" route="ns" depart="613.4061090417473" />
<vehicle id="type1_292" type="type1" route="ew" depart="613.5332748796123" />
<vehicle id="emv_7" type="rescue" route="ws" depart="614.172912946942" />
<vehicle id="type1_293" type="type1" route="sn" depart="617.4172420982885" />
<vehicle id="type1_294" type="type1" route="ws" depart="617.8683791141918" />
<vehicle id="type1_295" type="type1" route="wn" depart="620.0454583221233" />
<vehicle id="type1_296" type="type1" route="en" depart="621.1107460209662" />
<vehicle id="type1_297" type="type1" route="sn" depart="625.8227521740065" />
<vehicle id="type1_298" type="type1" route="ew" depart="628.3873838351846" />
<vehicle id="type1_299" type="type1" route="ew" depart="634.6461658293877" />
<vehicle id="type1_300" type="type1" route="sw" depart="635.1074704734065" />
<vehicle id="type1_301" type="type1" route="ws" depart="636.4215801191" />
<vehicle id="type1_302" type="type1" route="we" depart="637.1568935923906" />
<vehicle id="type1_303" type="type1" route="we" depart="638.1113626872885" />
<vehicle id="type1_304" type="type1" route="ws" depart="638.2981425031095" />
<vehicle id="type1_305" type="type1" route="wn" depart="642.3491480631836" />
<vehicle id="type1_306" type="type1" route="sw" depart="645.2965207629819" />
<vehicle id="type1_307" type="type1" route="ne" depart="646.7732425787043" />
<vehicle id="type1_308" type="type1" route="ns" depart="651.4430390802963" />
<vehicle id="type1_309" type="type1" route="we" depart="652.671556640505" />
<vehicle id="type1_310" type="type1" route="ew" depart="655.0941561245552" />
<vehicle id="type1_311" type="type1" route="es" depart="656.0520809374308" />
<vehicle id="type1_312" type="type1" route="ns" depart="656.1727354591015" />
<vehicle id="type1_313" type="type1" route="we" depart="656.9315553235831" />
<vehicle id="type1_314" type="type1" route="sn" depart="657.4091202040725" />
<vehicle id="type1_315" type="type1" route="ws" depart="661.6067911373609" />
<vehicle id="type1_316" type="type1" route="we" depart="665.2128401035665" />
<vehicle id="type1_317" type="type1" route="wn" depart="665.4207497696963" />
<vehicle id="type1_318" type="type1" route="sn" depart="667.8147544321635" />
<vehicle id="type1_319" type="type1" route="ew" depart="669.0694861706498" />
<vehicle id="type1_320" type="type1" route="ns" depart="675.7955899353943" />
<vehicle id="type1_321" type="type1" route="sw" depart="681.7469203091438" />
<vehicle id="type1_322" type="type1" route="sn" depart="682.246666743715" />
<vehicle id="type1_323" type="type1" route="nw" depart="682.5205279165324" />
<vehicle id="type1_324" type="type1" route="we" depart="684.5911348539039" />
<vehicle id="type1_325" type="type1" route="sn" depart="685.9914387494941" />
<vehicle id="type1_326" type="type1" route="ws" depart="687.402159838069" />
<vehicle id="type1_327" type="type1" route="ns" depart="688.5365833895073" />
<vehicle id="type1_328" type="type1" route="we" depart="688.7239067056942" />
<vehicle id="type1_329" type="type1" route="es" depart="689.4805984718512" />
<vehicle id="type1_330" type="type1" route="ne" depart="689.7554952469784" />
<vehicle id="type1_331" type="type1" route="sn" depart="689.7940665417623" />
<vehicle id="type1_332" type="type1" route="sn" depart="692.0789514567143" />
<vehicle id="type1_333" type="type1" route="ws" depart="692.8867892614459" />
<vehicle id="type1_334" type="type1" route="ew" depart="693.1159126069541" />
<vehicle id="type1_335" type="type1" route="we" depart="698.9253597584457" />
<vehicle id="type1_336" type="type1" route="ne" depart="701.1703531221897" />
<vehicle id="type1_337" type="type1" route="en" depart="702.2166592561856" />
<vehicle id="type1_338" type="type1" route="ns" depart="705.0700756689054" />
<vehicle id="type1_339" type="type1" route="ew" depart="710.5323325951027" />
<vehicle id="type1_340" type="type1" route="se" depart="724.0991471524969" />
<vehicle id="type1_341" type="type1" route="ws" depart="724.4126649458316" />
<vehicle id="type1_342" type="type1" route="es" depart="726.3222079038678" />
<vehicle id="type1_343" type="type1" route="ns" depart="727.388752856281" />
<vehicle id="type1_344" type="type1" route="ws" depart="728.8895753324739" />
<vehicle id="type1_345" type="type1" route="ew" depart="734.3031672364854" />
<vehicle id="type1_346" type="type1" route="ne" depart="734.9541030834655" />
<vehicle id="type1_347" type="type1" route="wn" depart="735.9708420472546" />
<vehicle id="type1_348" type="type1" route="wn" depart="738.1391941993138" />
<vehicle id="type1_349" type="type1" route="ws" depart="739.9530914386946" />
<vehicle id="type1_350" type="type1" route="se" depart="741.3585643545131" />
<vehicle id="type1_351" type="type1" route="ns" depart="741.8687688301857" />
<vehicle id="type1_352" type="type1" route="sw" depart="743.3641775387837" />
<vehicle id="type1_353" type="type1" route="wn" depart="747.1704691201846" />
<vehicle id="type1_354" type="type1" route="nw" depart="754.9511880198496" />
<vehicle id="type1_355" type="type1" route="en" depart="755.1547567853438" />
<vehicle id="emv_8" type="rescue" route="en" depart="755.6566993830666" />
<vehicle id="type1_356" type="type1" route="wn" depart="755.7885251138149" />
<vehicle id="type1_357" type="type1" route="es" depart="757.8747708704068" />
<vehicle id="type1_358" type="type1" route="nw" depart="762.1707284730945" />