<routes>
            <vType id="type1" accel="0.8" decel="4.5" sigma="0.5" length="5" maxSpeed="70"/>
            <route id="ne" edges="ni eo"/>
            <route id="ns" edges="ni so"/>
            <route id="nw" edges="ni wo"/>
            <route id="en" edges="ei no"/>
            <route id="es" edges="ei so"/>
            <route id="ew" edges="ei wo"/>
            <route id="sn" edges="si no"/>
            <route id="se" edges="si eo"/>
            <route id="sw" edges="si wo"/>
            <route id="wn" edges="wi no"/>
            <route id="we" edges="wi eo"/>
            <route id="ws" edges="wi so"/>
        
            <personFlow id="p_0" begin="0" end="20" period="20">
                <walk route="we"/>
            </personFlow>
                         
            <personFlow id="p_1" begin="100" end="120" period="20">
                <walk route="ew"/>
            </personFlow>
                         
            <personFlow id="p_2" begin="200" end="220" period="20">
                <walk route="ns"/>
            </personFlow>
                         
            <personFlow id="p_3" begin="300" end="320" period="20">
                <walk route="sn"/>
            </personFlow>
                         <vehicle id="wn_0" type="type1" route="wn" depart="0.2467477668417854" />
<vehicle id="ne_1" type="type1" route="ne" depart="0.34247575046818374" />
<vehicle id="se_2" type="type1" route="se" depart="3.442544857706893" />
<vehicle id="sn_3" type="type1" route="sn" depart="3.74030517354744" />
<vehicle id="wn_4" type="type1" route="wn" depart="3.895513971957894" />
<vehicle id="ne_5" type="type1" route="ne" depart="4.187809858459313" />
<vehicle id="en_6" type="type1" route="en" depart="5.052450895027293" />
<vehicle id="sn_7" type="type1" route="sn" depart="5.289868559818261" />
<vehicle id="sn_8" type="type1" route="sn" depart="5.972227470748853" />
<vehicle id="es_9" type="type1" route="es" depart="6.506017679819863" />
<vehicle id="we_10" type="type1" route="we" depart="6.970787129206439" />
<vehicle id="nw_11" type="type1" route="nw" depart="9.57657538899755" />
<vehicle id="ne_12" type="type1" route="ne" depart="12.247449037698653" />
<vehicle id="sw_13" type="type1" route="sw" depart="13.554124687237831" />
<vehicle id="sn_14" type="type1" route="sn" depart="14.489943121540312" />
<vehicle id="ew_15" type="type1" route="ew" depart="14.787237326164668" />
<vehicle id="ns_16" type="type1" route="ns" depart="14.955042405462887" />
<vehicle id="en_17" type="type1" route="en" depart="15.518449001769321" />
<vehicle id="ws_18" type="type1" route="ws" depart="15.624771697411465" />
<vehicle id="ew_19" type="type1" route="ew" depart="15.74943398668736" />
<vehicle id="ne_20" type="type1" route="ne" depart="16.074973612174663" />
<vehicle id="se_21" type="type1" route="se" depart="16.92717007109863" />
<vehicle id="nw_22" type="type1" route="nw" depart="17.21658056879364" />
<vehicle id="wn_23" type="type1" route="wn" depart="17.743749257884108" />
<vehicle id="ew_24" type="type1" route="ew" depart="19.13908608822582" />
<vehicle id="se_25" type="type1" route="se" depart="19.762107741429837" />
<vehicle id="se_26" type="type1" route="se" depart="19.916467934224595" />
<vehicle id="es_27" type="type1" route="es" depart="19.945584211708866" />
<vehicle id="we_28" type="type1" route="we" depart="20.54544128878268" />
<vehicle id="es_29" type="type1" route="es" depart="20.615050107860103" />
<vehicle id="sn_30" type="type1" route="sn" depart="20.619209694193767" />
<vehicle id="nw_31" type="type1" route="nw" depart="22.19815222067549" />
<vehicle id="we_32" type="type1" route="we" depart="22.892209974805088" />
<vehicle id="es_33" type="type1" route="es" depart="24.035373141650748" />
<vehicle id="we_34" type="type1" route="we" depart="24.163946324129046" />
<vehicle id="ew_35" type="type1" route="ew" depart="25.561246296622425" />
<vehicle id="nw_36" type="type1" route="nw" depart="25.757494147693336" />
<vehicle id="sn_37" type="type1" route="sn" depart="25.806125630979153" />
<vehicle id="en_38" type="type1" route="en" depart="26.070940333401314" />
<vehicle id="sn_39" type="type1" route="sn" depart="26.857648787345187" />
<vehicle id="wn_40" type="type1" route="wn" depart="26.897673504521286" />
<vehicle id="se_41" type="type1" route="se" depart="28.182154572408354" />
<vehicle id="ne_42" type="type1" route="ne" depart="31.611760776792607" />
<vehicle id="wn_43" type="type1" route="wn" depart="32.006783248314115" />
<vehicle id="ne_44" type="type1" route="ne" depart="32.167750939911016" />
<vehicle id="en_45" type="type1" route="en" depart="32.26957220489233" />
<vehicle id="nw_46" type="type1" route="nw" depart="32.55024228043539" />
<vehicle id="en_47" type="type1" route="en" depart="32.83755478217702" />
<vehicle id="es_48" type="type1" route="es" depart="33.09121574439495" />
<vehicle id="sw_49" type="type1" route="sw" depart="33.938361378584794" />
<vehicle id="ew_50" type="type1" route="ew" depart="34.354557519530644" />
<vehicle id="en_51" type="type1" route="en" depart="34.59463483499195" />
<vehicle id="ew_52" type="type1" route="ew" depart="34.63234400676036" />
<vehicle id="we_53" type="type1" route="we" depart="35.14415765695418" />
<vehicle id="sw_54" type="type1" route="sw" depart="35.32674277911553" />
<vehicle id="sn_55" type="type1" route="sn" depart="37.624292676132676" />
<vehicle id="se_56" type="type1" route="se" depart="38.46422138723308" />
<vehicle id="sn_57" type="type1" route="sn" depart="38.5312947761436" />
<vehicle id="ns_58" type="type1" route="ns" depart="39.47195475126968" />
<vehicle id="we_59" type="type1" route="we" depart="39.69260620889206" />
<vehicle id="wn_60" type="type1" route="wn" depart="39.807501211984984" />
<vehicle id="ew_61" type="type1" route="ew" depart="39.81474930352907" />
<vehicle id="sw_62" type="type1" route="sw" depart="40.07688414391936" />
<vehicle id="nw_63" type="type1" route="nw" depart="40.5817068327122" />
<vehicle id="en_64" type="type1" route="en" depart="44.66742633047156" />
<vehicle id="se_65" type="type1" route="se" depart="45.52558162723996" />
<vehicle id="en_66" type="type1" route="en" depart="46.192847304854105" />
<vehicle id="ne_67" type="type1" route="ne" depart="46.495449025342545" />
<vehicle id="ne_68" type="type1" route="ne" depart="46.54796844876973" />
<vehicle id="sn_69" type="type1" route="sn" depart="47.18495903876994" />
<vehicle id="es_70" type="type1" route="es" depart="48.01874217101745" />
<vehicle id="wn_71" type="type1" route="wn" depart="48.156293919571624" />
<vehicle id="we_72" type="type1" route="we" depart="48.18371067055406" />
<vehicle id="ns_73" type="type1" route="ns" depart="48.59228701219517" />
<vehicle id="sw_74" type="type1" route="sw" depart="48.60955646844617" />
<vehicle id="ns_75" type="type1" route="ns" depart="48.74835570026083" />
<vehicle id="nw_76" type="type1" route="nw" depart="49.654126298833454" />
<vehicle id="se_77" type="type1" route="se" depart="50.112425975710565" />
<vehicle id="wn_78" type="type1" route="wn" depart="50.76571899567137" />
<vehicle id="ew_79" type="type1" route="ew" depart="52.57080124842567" />
<vehicle id="wn_80" type="type1" route="wn" depart="55.26774817274383" />
<vehicle id="nw_81" type="type1" route="nw" depart="56.94733825003319" />
<vehicle id="ns_82" type="type1" route="ns" depart="57.08484030724435" />
<vehicle id="ns_83" type="type1" route="ns" depart="57.66786175023969" />
<vehicle id="sn_84" type="type1" route="sn" depart="57.88189481000483" />
<vehicle id="nw_85" type="type1" route="nw" depart="58.13191552651837" />
<vehicle id="en_86" type="type1" route="en" depart="59.42299630576727" />
<vehicle id="ew_87" type="type1" route="ew" depart="59.600988915072975" />
<vehicle id="se_88" type="type1" route="se" depart="59.76015134121247" />
<vehicle id="se_89" type="type1" route="se" depart="59.77217399789289" />
<vehicle id="sn_90" type="type1" route="sn" depart="60.55885849489636" />
<vehicle id="en_91" type="type1" route="en" depart="60.97273872734177" />
<vehicle id="we_92" type="type1" route="we" depart="61.029264348310214" />
<vehicle id="es_93" type="type1" route="es" depart="61.892520071341295" />
<vehicle id="nw_94" type="type1" route="nw" depart="62.04029951784376" />
<vehicle id="wn_95" type="type1" route="wn" depart="63.95355385808017" />
<vehicle id="sw_96" type="type1" route="sw" depart="64.28469645809909" />
<vehicle id="nw_97" type="type1" route="nw" depart="65.10210350683734" />
<vehicle id="ns_98" type="type1" route="ns" depart="65.24702464725448" />
<vehicle id="es_99" type="type1" route="es" depart="66.2322859226061" />
<vehicle id="sn_100" type="type1" route="sn" depart="66.99409661467647" />
<vehicle id="es_101" type="type1" route="es" depart="67.14880284502998" />
<vehicle id="nw_102" type="type1" route="nw" depart="67.19551665417092" />
<vehicle id="we_103" type="type1" route="we" depart="67.74433666187892" />
<vehicle id="we_104" type="type1" route="we" depart="67.95958496987134" />
<vehicle id="nw_105" type="type1" route="nw" depart="68.07004479469487" />
<vehicle id="nw_106" type="type1" route="nw" depart="68.37188809358896" />
<vehicle id="sn_107" type="type1" route="sn" depart="68.63203824621444" />
<vehicle id="ew_108" type="type1" route="ew" depart="68.94247404955571" />
<vehicle id="ew_109" type="type1" route="ew" depart="69.36633360464748" />
<vehicle id="se_110" type="type1" route="se" depart="71.30969299576655" />
<vehicle id="en_111" type="type1" route="en" depart="72.09207517295047" />
<vehicle id="ne_112" type="type1" route="ne" depart="72.4858921009252" />
<vehicle id="sw_113" type="type1" route="sw" depart="72.83521916566383" />
<vehicle id="ws_114" type="type1" route="ws" depart="73.21012234037745" />
<vehicle id="ne_115" type="type1" route="ne" depart="73.86951567611922" />
<vehicle id="ew_116" type="type1" route="ew" depart="74.47088209165716" />
<vehicle id="ew_117" type="type1" route="ew" depart="75.06135603964823" />
<vehicle id="en_118" type="type1" route="en" depart="75.0947336854818" />
<vehicle id="ns_119" type="type1" route="ns" depart="75.96480962687504" />
<vehicle id="es_120" type="type1" route="es" depart="76.75947513681865" />
<vehicle id="sn_121" type="type1" route="sn" depart="77.08319894479673" />
<vehicle id="se_122" type="type1" route="se" depart="78.15538784581129" />
<vehicle id="wn_123" type="type1" route="wn" depart="78.58646991680597" />
<vehicle id="nw_124" type="type1" route="nw" depart="78.77574171068481" />
<vehicle id="se_125" type="type1" route="se" depart="78.91178064445353" />
<vehicle id="sn_126" type="type1" route="sn" depart="79.5591450358834" />
<vehicle id="we_127" type="type1" route="we" depart="80.88113408912362" />
<vehicle id="en_128" type="type1" route="en" depart="80.91581074315731" />
<vehicle id="ws_129" type="type1" route="ws" depart="81.18938988078186" />
<vehicle id="sw_130" type="type1" route="sw" depart="81.57924508201958" />
<vehicle id="es_131" type="type1" route="es" depart="82.32345567646107" />
<vehicle id="sw_132" type="type1" route="sw" depart="82.55025109567782" />
<vehicle id="sn_133" type="type1" route="sn" depart="84.02935906355154" />
<vehicle id="wn_134" type="type1" route="wn" depart="84.43761578884211" />
<vehicle id="sn_135" type="type1" route="sn" depart="85.25608638302016" />
<vehicle id="ns_136" type="type1" route="ns" depart="86.01743780981303" />
<vehicle id="nw_137" type="type1" route="nw" depart="86.11992764096647" />
<vehicle id="sn_138" type="type1" route="sn" depart="86.12779763893371" />
<vehicle id="we_139" type="type1" route="we" depart="86.58709148230975" />
<vehicle id="sn_140" type="type1" route="sn" depart="87.34200452447176" />
<vehicle id="se_141" type="type1" route="se" depart="87.85654497341926" />
<vehicle id="nw_142" type="type1" route="nw" depart="87.91371744458077" />
<vehicle id="se_143" type="type1" route="se" depart="88.5842086292023" />
<vehicle id="sw_144" type="type1" route="sw" depart="88.79149634156988" />
<vehicle id="wn_145" type="type1" route="wn" depart="89.68566712453324" />
<vehicle id="ew_146" type="type1" route="ew" depart="91.34388439121842" />
<vehicle id="sw_147" type="type1" route="sw" depart="91.82105497727048" />
<vehicle id="se_148" type="type1" route="se" depart="92.51847904286134" />
<vehicle id="sn_149" type="type1" route="sn" depart="93.26998719893703" />
<vehicle id="ws_150" type="type1" route="ws" depart="93.91820546590313" />
<vehicle id="nw_151" type="type1" route="nw" depart="95.26069901201727" />
<vehicle id="sw_152" type="type1" route="sw" depart="95.36433415490207" />
<vehicle id="sn_153" type="type1" route="sn" depart="95.38722497124245" />
<vehicle id="ns_154" type="type1" route="ns" depart="95.99802873476293" />
<vehicle id="se_155" type="type1" route="se" depart="99.19561696739619" />
<vehicle id="ne_156" type="type1" route="ne" depart="100.87044285174547" />
<vehicle id="ne_157" type="type1" route="ne" depart="101.02200734136856" />
<vehicle id="sn_158" type="type1" route="sn" depart="101.04515575815223" />
<vehicle id="sw_159" type="type1" route="sw" depart="101.28538162282268" />
<vehicle id="ns_160" type="type1" route="ns" depart="101.47903627992362" />
<vehicle id="ne_161" type="type1" route="ne" depart="101.60501602611663" />
<vehicle id="ew_162" type="type1" route="ew" depart="104.16983616812183" />
<vehicle id="ns_163" type="type1" route="ns" depart="105.35689180600272" />
<vehicle id="nw_164" type="type1" route="nw" depart="105.72535908820646" />
<vehicle id="ns_165" type="type1" route="ns" depart="107.15659182724265" />
<vehicle id="wn_166" type="type1" route="wn" depart="107.63008010344114" />
<vehicle id="sn_167" type="type1" route="sn" depart="107.86932919211078" />
<vehicle id="sn_168" type="type1" route="sn" depart="108.5665769169649" />
<vehicle id="nw_169" type="type1" route="nw" depart="108.68610535513724" />
<vehicle id="sn_170" type="type1" route="sn" depart="109.04970743927133" />
<vehicle id="se_171" type="type1" route="se" depart="109.9772226691918" />
<vehicle id="sw_172" type="type1" route="sw" depart="111.69929898514258" />
<vehicle id="sn_173" type="type1" route="sn" depart="111.85921606737172" />
<vehicle id="ew_174" type="type1" route="ew" depart="112.05639709817353" />
<vehicle id="ws_175" type="type1" route="ws" depart="113.57235593311594" />
<vehicle id="es_176" type="type1" route="es" depart="114.24207853171806" />
<vehicle id="ws_177" type="type1" route="ws" depart="115.04538526101018" />
<vehicle id="sn_178" type="type1" route="sn" depart="115.33261780801328" />
<vehicle id="se_179" type="type1" route="se" depart="115.66313174026126" />
<vehicle id="ew_180" type="type1" route="ew" depart="116.98349742180514" />
<vehicle id="we_181" type="type1" route="we" depart="118.82388621237152" />
<vehicle id="sw_182" type="type1" route="sw" depart="120.46788394850299" />
<vehicle id="sw_183" type="type1" route="sw" depart="120.47643241402717" />
<vehicle id="nw_184" type="type1" route="nw" depart="122.02367494571301" />
<vehicle id="ws_185" type="type1" route="ws" depart="122.07370106452953" />
<vehicle id="en_186" type="type1" route="en" depart="122.79055304671712" />
<vehicle id="ew_187" type="type1" route="ew" depart="123.19880046551926" />
<vehicle id="wn_188" type="type1" route="wn" depart="124.9871826132828" />
<vehicle id="ne_189" type="type1" route="ne" depart="125.01034030946902" />
<vehicle id="we_190" type="type1" route="we" depart="125.57748497265028" />
<vehicle id="en_191" type="type1" route="en" depart="125.65474251032597" />
<vehicle id="we_192" type="type1" route="we" depart="126.52963672690672" />
<vehicle id="wn_193" type="type1" route="wn" depart="127.77813869862733" />
<vehicle id="wn_194" type="type1" route="wn" depart="129.33326597691257" />
<vehicle id="we_195" type="type1" route="we" depart="130.96408038125654" />
<vehicle id="sn_196" type="type1" route="sn" depart="132.3154879673993" />
<vehicle id="ne_197" type="type1" route="ne" depart="132.32231837972924" />
<vehicle id="ns_198" type="type1" route="ns" depart="133.2224498245768" />
<vehicle id="es_199" type="type1" route="es" depart="133.3286342055541" />
<vehicle id="se_200" type="type1" route="se" depart="133.51381023839852" />
<vehicle id="en_201" type="type1" route="en" depart="134.46044297236293" />
<vehicle id="ws_202" type="type1" route="ws" depart="134.46233328775057" />
<vehicle id="es_203" type="type1" route="es" depart="134.63337958002688" />
<vehicle id="ns_204" type="type1" route="ns" depart="135.09036069964358" />
<vehicle id="ne_205" type="type1" route="ne" depart="135.76766167520574" />
<vehicle id="wn_206" type="type1" route="wn" depart="136.54121389808103" />
<vehicle id="sw_207" type="type1" route="sw" depart="136.98480815660542" />
<vehicle id="ns_208" type="type1" route="ns" depart="137.17609655069626" />
<vehicle id="es_209" type="type1" route="es" depart="137.56400429394807" />
<vehicle id="nw_210" type="type1" route="nw" depart="138.5496818993197" />
<vehicle id="we_211" type="type1" route="we" depart="139.51895562680411" />
<vehicle id="sn_212" type="type1" route="sn" depart="141.5413262443192" />
<vehicle id="nw_213" type="type1" route="nw" depart="142.7105815982287" />
<vehicle id="ew_214" type="type1" route="ew" depart="142.85612605603035" />
<vehicle id="wn_215" type="type1" route="wn" depart="143.94882861361285" />
<vehicle id="se_216" type="type1" route="se" depart="144.03869252467632" />
<vehicle id="en_217" type="type1" route="en" depart="146.03322441321242" />
<vehicle id="ew_218" type="type1" route="ew" depart="146.3904940199107" />
<vehicle id="nw_219" type="type1" route="nw" depart="147.4882326977707" />
<vehicle id="ns_220" type="type1" route="ns" depart="147.71524071452964" />
<vehicle id="wn_221" type="type1" route="wn" depart="148.12212820394242" />
<vehicle id="en_222" type="type1" route="en" depart="148.74374917277729" />
<vehicle id="se_223" type="type1" route="se" depart="149.35675972905827" />
<vehicle id="en_224" type="type1" route="en" depart="149.44380392898844" />
<vehicle id="ns_225" type="type1" route="ns" depart="151.49737187415997" />
<vehicle id="we_226" type="type1" route="we" depart="151.61352835609864" />
<vehicle id="es_227" type="type1" route="es" depart="151.7654909817944" />
<vehicle id="sn_228" type="type1" route="sn" depart="152.85061281956953" />
<vehicle id="ws_229" type="type1" route="ws" depart="154.55458329362475" />
<vehicle id="ws_230" type="type1" route="ws" depart="154.60684547480392" />
<vehicle id="sw_231" type="type1" route="sw" depart="154.67277960874986" />
<vehicle id="ws_232" type="type1" route="ws" depart="155.6099957044355" />
<vehicle id="se_233" type="type1" route="se" depart="157.08558413863557" />
<vehicle id="sn_234" type="type1" route="sn" depart="158.19397057898775" />
<vehicle id="we_235" type="type1" route="we" depart="160.1947390101091" />
<vehicle id="ws_236" type="type1" route="ws" depart="160.6056184393593" />
<vehicle id="sw_237" type="type1" route="sw" depart="161.14988625220096" />
<vehicle id="en_238" type="type1" route="en" depart="162.35928033041856" />
<vehicle id="es_239" type="type1" route="es" depart="163.83198837647404" />
<vehicle id="wn_240" type="type1" route="wn" depart="164.54226106058954" />
<vehicle id="ew_241" type="type1" route="ew" depart="165.55319070864604" />
<vehicle id="ns_242" type="type1" route="ns" depart="165.57222878255064" />
<vehicle id="we_243" type="type1" route="we" depart="167.02736879394396" />
<vehicle id="we_244" type="type1" route="we" depart="167.31690307055374" />
<vehicle id="ne_245" type="type1" route="ne" depart="167.4832526768337" />
<vehicle id="en_246" type="type1" route="en" depart="167.68828116753446" />
<vehicle id="se_247" type="type1" route="se" depart="167.85936650610455" />
<vehicle id="wn_248" type="type1" route="wn" depart="168.3323696918341" />
<vehicle id="se_249" type="type1" route="se" depart="170.28941969466658" />
<vehicle id="se_250" type="type1" route="se" depart="171.397952656273" />
<vehicle id="we_251" type="type1" route="we" depart="172.25959736196143" />
<vehicle id="en_252" type="type1" route="en" depart="172.71185644370095" />
<vehicle id="ns_253" type="type1" route="ns" depart="173.13566981626252" />
<vehicle id="se_254" type="type1" route="se" depart="173.72245780972258" />
<vehicle id="ns_255" type="type1" route="ns" depart="173.76666129149598" />
<vehicle id="ne_256" type="type1" route="ne" depart="174.14004258441886" />
<vehicle id="ew_257" type="type1" route="ew" depart="175.98174559914128" />
<vehicle id="es_258" type="type1" route="es" depart="176.06287482466084" />
<vehicle id="ew_259" type="type1" route="ew" depart="176.3926714265158" />
<vehicle id="sn_260" type="type1" route="sn" depart="176.62590229632988" />
<vehicle id="se_261" type="type1" route="se" depart="178.58487393226838" />
<vehicle id="en_262" type="type1" route="en" depart="180.29263201438536" />
<vehicle id="we_263" type="type1" route="we" depart="180.60930278761003" />
<vehicle id="ws_264" type="type1" route="ws" depart="180.62014305069906" />
<vehicle id="es_265" type="type1" route="es" depart="180.8696807692394" />
<vehicle id="sn_266" type="type1" route="sn" depart="180.93499926713142" />
<vehicle id="ws_267" type="type1" route="ws" depart="181.97512287234224" />
<vehicle id="es_268" type="type1" route="es" depart="182.4822894288963" />
<vehicle id="sw_269" type="type1" route="sw" depart="183.05647937682966" />
<vehicle id="sn_270" type="type1" route="sn" depart="183.32187995688213" />
<vehicle id="sw_271" type="type1" route="sw" depart="183.5454820303336" />
<vehicle id="es_272" type="type1" route="es" depart="184.04587886832314" />
<vehicle id="se_273" type="type1" route="se" depart="185.30356316378044" />
<vehicle id="sn_274" type="type1" route="sn" depart="185.51080148849775" />
<vehicle id="we_275" type="type1" route="we" depart="185.57715420012593" />
<vehicle id="ew_276" type="type1" route="ew" depart="186.68167059046294" />
<vehicle id="ew_277" type="type1" route="ew" depart="188.0730871860257" />
<vehicle id="ws_278" type="type1" route="ws" depart="188.32653553543622" />
<vehicle id="es_279" type="type1" route="es" depart="189.7017350532379" />
<vehicle id="sn_280" type="type1" route="sn" depart="190.59895003943714" />
<vehicle id="sn_281" type="type1" route="sn" depart="191.19732204245344" />
<vehicle id="sn_282" type="type1" route="sn" depart="191.7411044670043" />
<vehicle id="wn_283" type="type1" route="wn" depart="192.76558332135485" />
<vehicle id="sn_284" type="type1" route="sn" depart="193.81874425620828" />
<vehicle id="ns_285" type="type1" route="ns" depart="193.95196226286976" />
<vehicle id="ws_286" type="type1" route="ws" depart="194.07574806155873" />
<vehicle id="sw_287" type="type1" route="sw" depart="194.84815070498698" />
<vehicle id="ws_288" type="type1" route="ws" depart="195.3102947099789" />
<vehicle id="ew_289" type="type1" route="ew" depart="197.3351301089531" />
<vehicle id="ws_290" type="type1" route="ws" depart="198.09362581355236" />
<vehicle id="se_291" type="type1" route="se" depart="199.5324911233827" />
<vehicle id="nw_292" type="type1" route="nw" depart="199.80147252998415" />
<vehicle id="wn_293" type="type1" route="wn" depart="201.05101727173655" />
<vehicle id="se_294" type="type1" route="se" depart="201.88228836995424" />
<vehicle id="ws_295" type="type1" route="ws" depart="202.1194793038749" />
<vehicle id="wn_296" type="type1" route="wn" depart="202.30427326196377" />
<vehicle id="ns_297" type="type1" route="ns" depart="203.56923911490588" />
<vehicle id="wn_298" type="type1" route="wn" depart="204.26938171522366" />
<vehicle id="ws_299" type="type1" route="ws" depart="204.56094058397926" />
<vehicle id="es_300" type="type1" route="es" depart="204.86788749791535" />
<vehicle id="ne_301" type="type1" route="ne" depart="205.06618823745958" />
<vehicle id="wn_302" type="type1" route="wn" depart="205.28708936035207" />
<vehicle id="ew_303" type="type1" route="ew" depart="205.6575468321479" />
<vehicle id="we_304" type="type1" route="we" depart="205.67665108750384" />
<vehicle id="ew_305" type="type1" route="ew" depart="205.88217906409625" />
<vehicle id="ns_306" type="type1" route="ns" depart="206.59088731540413" />
<vehicle id="ws_307" type="type1" route="ws" depart="206.81501526438598" />
<vehicle id="se_308" type="type1" route="se" depart="207.24981807898624" />
<vehicle id="wn_309" type="type1" route="wn" depart="207.4902345211701" />
<vehicle id="ew_310" type="type1" route="ew" depart="209.6615783113055" />
<vehicle id="es_311" type="type1" route="es" depart="209.84967319299142" />
<vehicle id="wn_312" type="type1" route="wn" depart="210.49953716700838" />
<vehicle id="nw_313" type="type1" route="nw" depart="211.34240819916005" />
<vehicle id="en_314" type="type1" route="en" depart="211.44476001759875" />
<vehicle id="nw_315" type="type1" route="nw" depart="212.03893272888197" />
<vehicle id="es_316" type="type1" route="es" depart="212.29254766656854" />
<vehicle id="ns_317" type="type1" route="ns" depart="212.34839836303905" />
<vehicle id="sw_318" type="type1" route="sw" depart="213.8478974182653" />
<vehicle id="ne_319" type="type1" route="ne" depart="216.41967453522514" />
<vehicle id="en_320" type="type1" route="en" depart="217.05443119903452" />
<vehicle id="wn_321" type="type1" route="wn" depart="217.18797220805553" />
<vehicle id="ws_322" type="type1" route="ws" depart="217.35726634433396" />
<vehicle id="ns_323" type="type1" route="ns" depart="217.51325517038978" />
<vehicle id="se_324" type="type1" route="se" depart="219.7976259269219" />
<vehicle id="en_325" type="type1" route="en" depart="219.9982892005147" />
<vehicle id="wn_326" type="type1" route="wn" depart="220.66585944958078" />
<vehicle id="wn_327" type="type1" route="wn" depart="222.15395069441783" />
<vehicle id="sn_328" type="type1" route="sn" depart="222.33334716407145" />
<vehicle id="wn_329" type="type1" route="wn" depart="223.26965698306708" />
<vehicle id="ne_330" type="type1" route="ne" depart="223.37907800815293" />
<vehicle id="se_331" type="type1" route="se" depart="224.9465840165073" />
<vehicle id="en_332" type="type1" route="en" depart="225.52575785127547" />
<vehicle id="ew_333" type="type1" route="ew" depart="225.5353977836126" />
<vehicle id="wn_334" type="type1" route="wn" depart="225.9185684108121" />
<vehicle id="en_335" type="type1" route="en" depart="226.9024533154011" />
<vehicle id="sw_336" type="type1" route="sw" depart="227.30364850233445" />
<vehicle id="wn_337" type="type1" route="wn" depart="227.54480044685235" />
<vehicle id="ew_338" type="type1" route="ew" depart="228.76498738514613" />
<vehicle id="ne_339" type="type1" route="ne" depart="229.308521271215" />
<vehicle id="we_340" type="type1" route="we" depart="229.58623608654432" />
<vehicle id="ws_341" type="type1" route="ws" depart="230.21860463188662" />
<vehicle id="wn_342" type="type1" route="wn" depart="231.01477501310046" />
<vehicle id="ne_343" type="type1" route="ne" depart="231.12758791246358" />
<vehicle id="ne_344" type="type1" route="ne" depart="231.29897492128302" />
<vehicle id="wn_345" type="type1" route="wn" depart="232.3739528737438" />
<vehicle id="ew_346" type="type1" route="ew" depart="232.49530875660042" />
<vehicle id="se_347" type="type1" route="se" depart="232.50797918659921" />
<vehicle id="ew_348" type="type1" route="ew" depart="233.15550270236244" />
<vehicle id="wn_349" type="type1" route="wn" depart="234.27814654286544" />
<vehicle id="we_350" type="type1" route="we" depart="234.89439917148582" />
<vehicle id="nw_351" type="type1" route="nw" depart="234.93316921379738" />
<vehicle id="nw_352" type="type1" route="nw" depart="236.12572997219903" />
<vehicle id="ns_353" type="type1" route="ns" depart="236.79819529268573" />
<vehicle id="wn_354" type="type1" route="wn" depart="237.03452604234863" />
<vehicle id="ew_355" type="type1" route="ew" depart="237.56145842860525" />
<vehicle id="nw_356" type="type1" route="nw" depart="237.7782863838324" />
<vehicle id="ne_357" type="type1" route="ne" depart="237.99501849393118" />
<vehicle id="ws_358" type="type1" route="ws" depart="238.00406812664087" />
<vehicle id="sw_359" type="type1" route="sw" depart="238.46536102926478" />
<vehicle id="sw_360" type="type1" route="sw" depart="240.06903451686046" />
<vehicle id="ew_361" type="type1" route="ew" depart="240.92179099270484" />
<vehicle id="ns_362" type="type1" route="ns" depart="241.06607649130683" />
<vehicle id="se_363" type="type1" route="se" depart="243.1475078917358" />
<vehicle id="sn_364" type="type1" route="sn" depart="243.16345267871588" />
<vehicle id="wn_365" type="type1" route="wn" depart="243.51417930430003" />
<vehicle id="ew_366" type="type1" route="ew" depart="243.72031498123278" />
<vehicle id="ne_367" type="type1" route="ne" depart="243.81291464363696" />
<vehicle id="nw_368" type="type1" route="nw" depart="244.25216351912832" />
<vehicle id="sn_369" type="type1" route="sn" depart="244.94847785852343" />
<vehicle id="ws_370" type="type1" route="ws" depart="245.14016421891685" />
<vehicle id="sn_371" type="type1" route="sn" depart="245.8757335626573" />
<vehicle id="wn_372" type="type1" route="wn" depart="246.02061728419307" />
<vehicle id="sn_373" type="type1" route="sn" depart="247.04037184088364" />
<vehicle id="ws_374" type="type1" route="ws" depart="248.5330884439893" />
<vehicle id="sn_375" type="type1" route="sn" depart="248.70750765095528" />
<vehicle id="wn_376" type="type1" route="wn" depart="249.20123923942796" />
<vehicle id="nw_377" type="type1" route="nw" depart="250.441947853829" />
<vehicle id="ew_378" type="type1" route="ew" depart="250.64519540573897" />
<vehicle id="se_379" type="type1" route="se" depart="251.09286807050253" />
<vehicle id="ew_380" type="type1" route="ew" depart="251.75993791466655" />
<vehicle id="sw_381" type="type1" route="sw" depart="251.94601156107942" />