<routes>
            <vType id="type1" accel="0.8" decel="4.5" sigma="0.5" length="5" maxSpeed="70"/>
            <route id="ne" edges="ni eo"/>
            <route id="ns" edges="ni so"/>
            <route id="nw" edges="ni wo"/>
            <route id="en" edges="ei no"/>
            <route id="es" edges="ei so"/>
            <route id="ew" edges="ei wo"/>
            <route id="sn" edges="si no"/>
            <route id="se" edges="si eo"/>
            <route id="sw" edges="si wo"/>
            <route id="wn" edges="wi no"/>
            <route id="we" edges="wi eo"/>
            <route id="ws" edges="wi so"/>
        <vehicle id="se_0" type="type1" route="se" depart="5.070729529716931" />
<vehicle id="ne_1" type="type1" route="ne" depart="26.696910979363807" />
<vehicle id="sn_2" type="type1" route="sn" depart="36.97880990466176" />
<vehicle id="we_3" type="type1" route="we" depart="40.587428592137925" />
<vehicle id="ne_4" type="type1" route="ne" depart="47.5029139887908" />
<vehicle id="ew_5" type="type1" route="ew" depart="100.67931125256875" />
<vehicle id="ws_6" type="type1" route="ws" depart="121.51165221272842" />
<vehicle id="ne_7" type="type1" route="ne" depart="122.7925848057628" />
<vehicle id="nw_8" type="type1" route="nw" depart="128.45367914627366" />
<vehicle id="se_9" type="type1" route="se" depart="129.85839369968923" />
<vehicle id="we_10" type="type1" route="we" depart="138.34464749600843" />
<vehicle id="nw_11" type="type1" route="nw" depart="141.25911370824295" />
<vehicle id="we_12" type="type1" route="we" depart="169.9512150104933" />
<vehicle id="sn_13" type="type1" route="sn" depart="217.89350269881402" />
<vehicle id="en_14" type="type1" route="en" depart="279.7305918802922" />
<vehicle id="wn_15" type="type1" route="wn" depart="287.9142372500394" />
<vehicle id="wn_16" type="type1" route="wn" depart="290.63509672180584" />
<vehicle id="nw_17" type="type1" route="nw" depart="322.5135510624705" />
<vehicle id="es_18" type="type1" route="es" depart="361.846184226544" />
<vehicle id="en_19" type="type1" route="en" depart="364.18639382509485" />
<vehicle id="sw_20" type="type1" route="sw" depart="375.43089030417605" />
<vehicle id="sn_21" type="type1" route="sn" depart="397.9307343360861" />
<vehicle id="wn_22" type="type1" route="wn" depart="416.63575407556334" />
<vehicle id="sw_23" type="type1" route="sw" depart="436.95713393352764" />
<vehicle id="en_24" type="type1" route="en" depart="440.9358976759896" />
<vehicle id="en_25" type="type1" route="en" depart="473.0115266901362" />
<vehicle id="sn_26" type="type1" route="sn" depart="501.2638673811186" />
<vehicle id="wn_27" type="type1" route="wn" depart="555.24150508827" />
<vehicle id="sw_28" type="type1" route="sw" depart="557.3951300315066" />
<vehicle id="ns_29" type="type1" route="ns" depart="558.7057062356403" />
<vehicle id="wn_30" type="type1" route="wn" depart="570.3633417936325" />
<vehicle id="wn_31" type="type1" route="wn" depart="705.9887019934205" />
<vehicle id="ns_32" type="type1" route="ns" depart="716.8864792216135" />
<vehicle id="en_33" type="type1" route="en" depart="721.9831852478652" />
<vehicle id="se_34" type="type1" route="se" depart="722.2271366660696" />
<vehicle id="sn_35" type="type1" route="sn" depart="730.5992188652812" />
<vehicle id="es_36" type="type1" route="es" depart="748.974859963516" />
<vehicle id="sw_37" type="type1" route="sw" depart="757.5413554527969" />
<vehicle id="ns_38" type="type1" route="ns" depart="792.8256304896153" />
<vehicle id="es_39" type="type1" route="es" depart="797.5773363556224" />
<vehicle id="we_40" type="type1" route="we" depart="800.2772398454892" />
<vehicle id="nw_41" type="type1" route="nw" depart="800.9958539811814" />
<vehicle id="sn_42" type="type1" route="sn" depart="808.1237207769794" />
<vehicle id="ew_43" type="type1" route="ew" depart="812.6560938492155" />
<vehicle id="ne_44" type="type1" route="ne" depart="813.2217394511918" />
<vehicle id="ne_45" type="type1" route="ne" depart="814.6035316616436" />
<vehicle id="ew_46" type="type1" route="ew" depart="828.207892224793" />
<vehicle id="es_47" type="type1" route="es" depart="841.4638622727697" />
<vehicle id="wn_48" type="type1" route="wn" depart="853.1735489126362" />
<vehicle id="sn_49" type="type1" route="sn" depart="932.824432634189" />
</routes>