<routes>
            <vType id="type1" accel="0.8" decel="4.5" sigma="0.5" length="5" maxSpeed="70"/>
            <route id="ne" edges="ni eo"/>
            <route id="ns" edges="ni so"/>
            <route id="nw" edges="ni wo"/>
            <route id="en" edges="ei no"/>
            <route id="es" edges="ei so"/>
            <route id="ew" edges="ei wo"/>
            <route id="sn" edges="si no"/>
            <route id="se" edges="si eo"/>
            <route id="sw" edges="si wo"/>
            <route id="wn" edges="wi no"/>
            <route id="we" edges="wi eo"/>
            <route id="ws" edges="wi so"/>
        
            <personFlow id="p_sn" begin="0" end="600" period="50">
                <walk route="sn"/>
            </personFlow>
                         
            <personFlow id="p_we" begin="0" end="600" period="50">
                <walk route="we"/>
            </personFlow>
                         
            <personFlow id="p_ns" begin="0" end="600" period="50">
                <walk route="ns"/>
            </personFlow>
                         
            <personFlow id="p_ew" begin="0" end="600" period="50">
                <walk route="ew"/>
            </personFlow>
                         <vehicle id="wn_0" type="type1" route="wn" depart="1.0562207726566886" />
<vehicle id="ne_1" type="type1" route="ne" depart="1.4490079070089186" />
<vehicle id="se_2" type="type1" route="se" depart="2.1224382320343658" />
<vehicle id="sn_3" type="type1" route="sn" depart="2.152896570023503" />
<vehicle id="wn_4" type="type1" route="wn" depart="3.005359825166102" />
<vehicle id="ne_5" type="type1" route="ne" depart="3.9635972464577236" />
<vehicle id="en_6" type="type1" route="en" depart="4.004420211013982" />
<vehicle id="sn_7" type="type1" route="sn" depart="5.917418729335786" />
<vehicle id="sn_8" type="type1" route="sn" depart="6.068031602030158" />
<vehicle id="es_9" type="type1" route="es" depart="6.615952724038547" />
<vehicle id="we_10" type="type1" route="we" depart="7.2084992113556785" />
<vehicle id="nw_11" type="type1" route="nw" depart="7.744674476565867" />
<vehicle id="ne_12" type="type1" route="ne" depart="8.03575058569762" />
<vehicle id="sw_13" type="type1" route="sw" depart="8.102652339254275" />
<vehicle id="sn_14" type="type1" route="sn" depart="8.258398748192683" />
<vehicle id="ew_15" type="type1" route="ew" depart="8.839791903780657" />
<vehicle id="ns_16" type="type1" route="ns" depart="8.939009020410474" />
<vehicle id="en_17" type="type1" route="en" depart="11.231609848877184" />
<vehicle id="ws_18" type="type1" route="ws" depart="12.505110745137896" />
<vehicle id="ew_19" type="type1" route="ew" depart="13.176581794539747" />
<vehicle id="ne_20" type="type1" route="ne" depart="13.391205600436408" />
<vehicle id="se_21" type="type1" route="se" depart="13.548534152477004" />
<vehicle id="nw_22" type="type1" route="nw" depart="13.834772691823918" />
<vehicle id="wn_23" type="type1" route="wn" depart="13.85942152880554" />
<vehicle id="ew_24" type="type1" route="ew" depart="13.986500741344177" />
<vehicle id="se_25" type="type1" route="se" depart="15.016514688845305" />
<vehicle id="se_26" type="type1" route="se" depart="15.159136402236461" />
<vehicle id="es_27" type="type1" route="es" depart="15.643450734900082" />
<vehicle id="we_28" type="type1" route="we" depart="16.39305981829843" />
<vehicle id="es_29" type="type1" route="es" depart="16.746191193976216" />
<vehicle id="sn_30" type="type1" route="sn" depart="18.38270553295015" />
<vehicle id="nw_31" type="type1" route="nw" depart="18.608384846377746" />
<vehicle id="we_32" type="type1" route="we" depart="18.956194413293762" />
<vehicle id="es_33" type="type1" route="es" depart="18.98795062067549" />
<vehicle id="we_34" type="type1" route="we" depart="19.282712473306415" />
<vehicle id="ew_35" type="type1" route="ew" depart="20.041488611081604" />
<vehicle id="nw_36" type="type1" route="nw" depart="20.56875526419836" />
<vehicle id="sn_37" type="type1" route="sn" depart="22.26914172974916" />
<vehicle id="en_38" type="type1" route="en" depart="22.62286964438622" />
<vehicle id="sn_39" type="type1" route="sn" depart="22.914461441889216" />
<vehicle id="wn_40" type="type1" route="wn" depart="23.155265116912002" />
<vehicle id="se_41" type="type1" route="se" depart="23.283107197402206" />
<vehicle id="ne_42" type="type1" route="ne" depart="25.031537577818945" />
<vehicle id="wn_43" type="type1" route="wn" depart="25.063576449742836" />
<vehicle id="ne_44" type="type1" route="ne" depart="25.200142236174866" />
<vehicle id="en_45" type="type1" route="en" depart="25.845102152072116" />
<vehicle id="nw_46" type="type1" route="nw" depart="27.227257372527284" />
<vehicle id="en_47" type="type1" route="en" depart="28.44875459765435" />
<vehicle id="es_48" type="type1" route="es" depart="28.53074527374103" />
<vehicle id="sw_49" type="type1" route="sw" depart="28.60421289387845" />
<vehicle id="ew_50" type="type1" route="ew" depart="29.07699079857251" />
<vehicle id="en_51" type="type1" route="en" depart="30.819274571882644" />
<vehicle id="ew_52" type="type1" route="ew" depart="31.089889033140153" />
<vehicle id="we_53" type="type1" route="we" depart="32.24893694190102" />
<vehicle id="sw_54" type="type1" route="sw" depart="32.582479642595125" />
<vehicle id="sn_55" type="type1" route="sn" depart="33.50826444594556" />
<vehicle id="se_56" type="type1" route="se" depart="34.126915584901454" />
<vehicle id="sn_57" type="type1" route="sn" depart="34.14103677979709" />
<vehicle id="ns_58" type="type1" route="ns" depart="34.24383411568912" />
<vehicle id="we_59" type="type1" route="we" depart="35.7397212606141" />
<vehicle id="wn_60" type="type1" route="wn" depart="38.41061500835808" />
<vehicle id="ew_61" type="type1" route="ew" depart="38.68965136322025" />
<vehicle id="sw_62" type="type1" route="sw" depart="40.22165567134172" />
<vehicle id="nw_63" type="type1" route="nw" depart="41.0496245302559" />
<vehicle id="en_64" type="type1" route="en" depart="42.37973296931974" />
<vehicle id="se_65" type="type1" route="se" depart="44.11271317757727" />
<vehicle id="en_66" type="type1" route="en" depart="44.6258236665991" />
<vehicle id="ne_67" type="type1" route="ne" depart="44.82293689243862" />
<vehicle id="ne_68" type="type1" route="ne" depart="45.04269188251479" />
<vehicle id="sn_69" type="type1" route="sn" depart="46.64910776099637" />
<vehicle id="es_70" type="type1" route="es" depart="47.34790333798055" />
<vehicle id="wn_71" type="type1" route="wn" depart="47.42290786600634" />
<vehicle id="we_72" type="type1" route="we" depart="47.851519030518624" />
<vehicle id="ns_73" type="type1" route="ns" depart="47.947731414225345" />
<vehicle id="sw_74" type="type1" route="sw" depart="48.00836766462287" />
<vehicle id="ns_75" type="type1" route="ns" depart="48.43589305413101" />
<vehicle id="nw_76" type="type1" route="nw" depart="48.581939976736464" />
<vehicle id="se_77" type="type1" route="se" depart="48.80965684610034" />
<vehicle id="wn_78" type="type1" route="wn" depart="49.34272610789857" />
<vehicle id="ew_79" type="type1" route="ew" depart="49.637502252266536" />
<vehicle id="wn_80" type="type1" route="wn" depart="50.49546923018992" />
<vehicle id="nw_81" type="type1" route="nw" depart="50.776419950705645" />
<vehicle id="ns_82" type="type1" route="ns" depart="51.56045724253351" />
<vehicle id="ns_83" type="type1" route="ns" depart="52.252079066258204" />
<vehicle id="sn_84" type="type1" route="sn" depart="52.456169910361254" />
<vehicle id="nw_85" type="type1" route="nw" depart="53.25063203555419" />
<vehicle id="en_86" type="type1" route="en" depart="53.548011824964135" />
<vehicle id="ew_87" type="type1" route="ew" depart="53.96902969441171" />
<vehicle id="se_88" type="type1" route="se" depart="54.59180365967762" />
<vehicle id="se_89" type="type1" route="se" depart="55.160443765362444" />
<vehicle id="sn_90" type="type1" route="sn" depart="55.32681583336474" />
<vehicle id="en_91" type="type1" route="en" depart="55.59156509044696" />
<vehicle id="we_92" type="type1" route="we" depart="55.678825184344575" />
<vehicle id="es_93" type="type1" route="es" depart="55.88799434415223" />
<vehicle id="nw_94" type="type1" route="nw" depart="56.1674675267676" />
<vehicle id="wn_95" type="type1" route="wn" depart="56.39104350181053" />
<vehicle id="sw_96" type="type1" route="sw" depart="57.22233766179148" />
<vehicle id="nw_97" type="type1" route="nw" depart="57.586116147317" />
<vehicle id="ns_98" type="type1" route="ns" depart="57.945142202019085" />
<vehicle id="es_99" type="type1" route="es" depart="58.475247060104074" />
<vehicle id="sn_100" type="type1" route="sn" depart="58.66318012172717" />
<vehicle id="es_101" type="type1" route="es" depart="59.694518381606095" />
<vehicle id="nw_102" type="type1" route="nw" depart="60.33709392874467" />
<vehicle id="we_103" type="type1" route="we" depart="60.60721649115868" />
<vehicle id="we_104" type="type1" route="we" depart="60.67308304173477" />
<vehicle id="nw_105" type="type1" route="nw" depart="60.83160469018244" />
<vehicle id="nw_106" type="type1" route="nw" depart="62.87992454316395" />
<vehicle id="sn_107" type="type1" route="sn" depart="63.1301352478137" />
<vehicle id="ew_108" type="type1" route="ew" depart="63.286704792095186" />
<vehicle id="ew_109" type="type1" route="ew" depart="63.571559748477675" />
<vehicle id="se_110" type="type1" route="se" depart="64.0043761809959" />
<vehicle id="en_111" type="type1" route="en" depart="64.00488867174974" />
<vehicle id="ne_112" type="type1" route="ne" depart="64.91409435368823" />
<vehicle id="sw_113" type="type1" route="sw" depart="65.81618769162094" />
<vehicle id="ws_114" type="type1" route="ws" depart="66.27156985796405" />
<vehicle id="ne_115" type="type1" route="ne" depart="67.28302688584664" />
<vehicle id="ew_116" type="type1" route="ew" depart="67.99072449692198" />
<vehicle id="ew_117" type="type1" route="ew" depart="68.22106906972452" />
<vehicle id="en_118" type="type1" route="en" depart="68.42075717166608" />
<vehicle id="ns_119" type="type1" route="ns" depart="69.5417912275609" />
<vehicle id="es_120" type="type1" route="es" depart="69.64849075630725" />
<vehicle id="sn_121" type="type1" route="sn" depart="70.83610786806626" />
<vehicle id="se_122" type="type1" route="se" depart="73.43845943770737" />
<vehicle id="wn_123" type="type1" route="wn" depart="73.88408815804613" />
<vehicle id="nw_124" type="type1" route="nw" depart="74.68871600747575" />
<vehicle id="se_125" type="type1" route="se" depart="74.96300297725378" />
<vehicle id="sn_126" type="type1" route="sn" depart="76.10700122314412" />
<vehicle id="we_127" type="type1" route="we" depart="76.22632647208246" />
<vehicle id="en_128" type="type1" route="en" depart="76.38709682028838" />
<vehicle id="ws_129" type="type1" route="ws" depart="76.42141489478907" />
<vehicle id="sw_130" type="type1" route="sw" depart="76.92951038732971" />
<vehicle id="es_131" type="type1" route="es" depart="78.63854781011403" />
<vehicle id="sw_132" type="type1" route="sw" depart="79.21693178370973" />
<vehicle id="sn_133" type="type1" route="sn" depart="79.24870300585684" />
<vehicle id="wn_134" type="type1" route="wn" depart="79.99764664931804" />
<vehicle id="sn_135" type="type1" route="sn" depart="80.24894494143234" />
<vehicle id="ns_136" type="type1" route="ns" depart="82.00946300376182" />
<vehicle id="nw_137" type="type1" route="nw" depart="82.07297180992614" />
<vehicle id="sn_138" type="type1" route="sn" depart="82.80018159314068" />
<vehicle id="we_139" type="type1" route="we" depart="83.19475608724943" />
<vehicle id="sn_140" type="type1" route="sn" depart="83.56628770936314" />
<vehicle id="se_141" type="type1" route="se" depart="83.681568469644" />
<vehicle id="nw_142" type="type1" route="nw" depart="85.0701652837259" />
<vehicle id="se_143" type="type1" route="se" depart="85.68543973945413" />
<vehicle id="sw_144" type="type1" route="sw" depart="85.72737683176585" />
<vehicle id="wn_145" type="type1" route="wn" depart="86.16828507835092" />
<vehicle id="ew_146" type="type1" route="ew" depart="86.24788473562243" />
<vehicle id="sw_147" type="type1" route="sw" depart="88.99075226860786" />
<vehicle id="se_148" type="type1" route="se" depart="89.12310494794728" />
<vehicle id="sn_149" type="type1" route="sn" depart="90.23939003354658" />
<vehicle id="ws_150" type="type1" route="ws" depart="90.91978020802259" />
<vehicle id="nw_151" type="type1" route="nw" depart="91.15360325432837" />
<vehicle id="sw_152" type="type1" route="sw" depart="91.22919671545192" />
<vehicle id="sn_153" type="type1" route="sn" depart="91.70285254082103" />
<vehicle id="ns_154" type="type1" route="ns" depart="92.55647310902127" />
<vehicle id="se_155" type="type1" route="se" depart="92.7419340310902" />
<vehicle id="ne_156" type="type1" route="ne" depart="94.23655770330816" />
<vehicle id="ne_157" type="type1" route="ne" depart="94.76004054413559" />
<vehicle id="sn_158" type="type1" route="sn" depart="95.2978871420479" />
<vehicle id="sw_159" type="type1" route="sw" depart="96.62014800380649" />
<vehicle id="ns_160" type="type1" route="ns" depart="96.86826420558225" />
<vehicle id="ne_161" type="type1" route="ne" depart="97.12550147167292" />
<vehicle id="ew_162" type="type1" route="ew" depart="97.35208958605065" />
<vehicle id="ns_163" type="type1" route="ns" depart="97.76464951159028" />
<vehicle id="nw_164" type="type1" route="nw" depart="97.87504305481922" />
<vehicle id="ns_165" type="type1" route="ns" depart="97.93166293068147" />
<vehicle id="wn_166" type="type1" route="wn" depart="98.03715657476717" />
<vehicle id="sn_167" type="type1" route="sn" depart="102.2634133432531" />
<vehicle id="sn_168" type="type1" route="sn" depart="102.50093320279628" />
<vehicle id="nw_169" type="type1" route="nw" depart="104.83954903894235" />
<vehicle id="sn_170" type="type1" route="sn" depart="105.56670667582881" />
<vehicle id="se_171" type="type1" route="se" depart="105.81012065886037" />
<vehicle id="sw_172" type="type1" route="sw" depart="108.44301482610948" />
<vehicle id="sn_173" type="type1" route="sn" depart="109.41172733329142" />
<vehicle id="ew_174" type="type1" route="ew" depart="110.20705550606885" />
<vehicle id="ws_175" type="type1" route="ws" depart="111.22872920702491" />
<vehicle id="es_176" type="type1" route="es" depart="113.57166288122707" />
<vehicle id="ws_177" type="type1" route="ws" depart="113.97944130206268" />
<vehicle id="sn_178" type="type1" route="sn" depart="115.38381738527993" />
<vehicle id="se_179" type="type1" route="se" depart="115.94347100815297" />
<vehicle id="ew_180" type="type1" route="ew" depart="115.97318350016391" />
<vehicle id="we_181" type="type1" route="we" depart="115.97702295777981" />
<vehicle id="sw_182" type="type1" route="sw" depart="117.23470234651755" />
<vehicle id="sw_183" type="type1" route="sw" depart="117.59465156993757" />
<vehicle id="nw_184" type="type1" route="nw" depart="117.95829364599219" />
<vehicle id="ws_185" type="type1" route="ws" depart="118.14468220223199" />
<vehicle id="en_186" type="type1" route="en" depart="118.62778188033569" />
<vehicle id="ew_187" type="type1" route="ew" depart="119.80108007432938" />
<vehicle id="wn_188" type="type1" route="wn" depart="120.26543542511757" />
<vehicle id="ne_189" type="type1" route="ne" depart="120.28670247747294" />
<vehicle id="we_190" type="type1" route="we" depart="120.44023067096174" />
<vehicle id="en_191" type="type1" route="en" depart="120.67902110870213" />
<vehicle id="we_192" type="type1" route="we" depart="121.14615374969199" />
<vehicle id="wn_193" type="type1" route="wn" depart="121.88401747933389" />
<vehicle id="wn_194" type="type1" route="wn" depart="122.52039729580224" />
<vehicle id="we_195" type="type1" route="we" depart="122.79115345045402" />
<vehicle id="sn_196" type="type1" route="sn" depart="122.94058293567667" />
<vehicle id="ne_197" type="type1" route="ne" depart="123.16396985354672" />
<vehicle id="ns_198" type="type1" route="ns" depart="124.11243282031656" />
<vehicle id="es_199" type="type1" route="es" depart="125.53341579092408" />
<vehicle id="se_200" type="type1" route="se" depart="125.65953288850598" />
<vehicle id="en_201" type="type1" route="en" depart="125.70457418560544" />
<vehicle id="ws_202" type="type1" route="ws" depart="126.7682270882077" />
<vehicle id="es_203" type="type1" route="es" depart="129.08575291459294" />
<vehicle id="ns_204" type="type1" route="ns" depart="129.2025985301221" />
<vehicle id="ne_205" type="type1" route="ne" depart="136.11710759074765" />
<vehicle id="wn_206" type="type1" route="wn" depart="137.36151849013905" />
<vehicle id="sw_207" type="type1" route="sw" depart="137.97669896258625" />
<vehicle id="ns_208" type="type1" route="ns" depart="138.9842051526068" />
<vehicle id="es_209" type="type1" route="es" depart="139.7319146140315" />
<vehicle id="nw_210" type="type1" route="nw" depart="142.15453107917477" />
<vehicle id="we_211" type="type1" route="we" depart="143.43868508559012" />
<vehicle id="sn_212" type="type1" route="sn" depart="144.5380625538691" />
<vehicle id="nw_213" type="type1" route="nw" depart="144.65073850421146" />
<vehicle id="ew_214" type="type1" route="ew" depart="145.1330220262267" />
<vehicle id="wn_215" type="type1" route="wn" depart="145.81572093792633" />
<vehicle id="se_216" type="type1" route="se" depart="146.15008120547094" />
<vehicle id="en_217" type="type1" route="en" depart="146.48054764244247" />
<vehicle id="ew_218" type="type1" route="ew" depart="147.1041098250975" />
<vehicle id="nw_219" type="type1" route="nw" depart="147.41305120983108" />
<vehicle id="ns_220" type="type1" route="ns" depart="147.55048497370623" />
<vehicle id="wn_221" type="type1" route="wn" depart="148.16271944880046" />
<vehicle id="en_222" type="type1" route="en" depart="150.5715111694658" />
<vehicle id="se_223" type="type1" route="se" depart="150.8168117644347" />
<vehicle id="en_224" type="type1" route="en" depart="151.81687576026255" />
<vehicle id="ns_225" type="type1" route="ns" depart="152.28045422222422" />
<vehicle id="we_226" type="type1" route="we" depart="152.62041965557924" />
<vehicle id="es_227" type="type1" route="es" depart="153.0884595979618" />
<vehicle id="sn_228" type="type1" route="sn" depart="153.23498800619456" />
<vehicle id="ws_229" type="type1" route="ws" depart="153.30395367253055" />
<vehicle id="ws_230" type="type1" route="ws" depart="153.86358919459772" />
<vehicle id="sw_231" type="type1" route="sw" depart="155.17145770807156" />
<vehicle id="ws_232" type="type1" route="ws" depart="155.5939871074757" />
<vehicle id="se_233" type="type1" route="se" depart="157.68089256799783" />
<vehicle id="sn_234" type="type1" route="sn" depart="158.34259613979867" />
<vehicle id="we_235" type="type1" route="we" depart="158.83051210296722" />
<vehicle id="ws_236" type="type1" route="ws" depart="160.92101493805376" />
<vehicle id="sw_237" type="type1" route="sw" depart="161.58851129139137" />
<vehicle id="en_238" type="type1" route="en" depart="162.85225654611926" />
<vehicle id="es_239" type="type1" route="es" depart="163.32796666610378" />
<vehicle id="wn_240" type="type1" route="wn" depart="163.90788978615385" />
<vehicle id="ew_241" type="type1" route="ew" depart="164.1907718463369" />
<vehicle id="ns_242" type="type1" route="ns" depart="164.29109852493806" />
<vehicle id="we_243" type="type1" route="we" depart="164.3300701898459" />
<vehicle id="we_244" type="type1" route="we" depart="164.74653534642513" />
<vehicle id="ne_245" type="type1" route="ne" depart="165.69166637838785" />
<vehicle id="en_246" type="type1" route="en" depart="166.1984307353911" />
<vehicle id="se_247" type="type1" route="se" depart="166.64333565646803" />
<vehicle id="wn_248" type="type1" route="wn" depart="166.84455271059971" />
<vehicle id="se_249" type="type1" route="se" depart="167.031264998594" />
<vehicle id="se_250" type="type1" route="se" depart="167.50866640852365" />
<vehicle id="we_251" type="type1" route="we" depart="169.40878098029424" />
<vehicle id="en_252" type="type1" route="en" depart="169.91099363349474" />
<vehicle id="ns_253" type="type1" route="ns" depart="170.30792256392166" />
<vehicle id="se_254" type="type1" route="se" depart="171.56172173584767" />
<vehicle id="ns_255" type="type1" route="ns" depart="172.58223681423792" />
<vehicle id="ne_256" type="type1" route="ne" depart="172.99155527913723" />
<vehicle id="ew_257" type="type1" route="ew" depart="173.47803719541105" />
<vehicle id="es_258" type="type1" route="es" depart="174.84098050290382" />
<vehicle id="ew_259" type="type1" route="ew" depart="174.8817503437695" />
<vehicle id="sn_260" type="type1" route="sn" depart="174.88301262056444" />
<vehicle id="se_261" type="type1" route="se" depart="175.87706756786946" />
<vehicle id="en_262" type="type1" route="en" depart="175.98056981499926" />
<vehicle id="we_263" type="type1" route="we" depart="176.7779203844783" />
<vehicle id="ws_264" type="type1" route="ws" depart="178.2363234548388" />
<vehicle id="es_265" type="type1" route="es" depart="178.42412069863965" />
<vehicle id="sn_266" type="type1" route="sn" depart="178.5509001045758" />
<vehicle id="ws_267" type="type1" route="ws" depart="179.2082405254403" />
<vehicle id="es_268" type="type1" route="es" depart="179.58839686159388" />
<vehicle id="sw_269" type="type1" route="sw" depart="180.29981514514188" />
<vehicle id="sn_270" type="type1" route="sn" depart="180.4666941994369" />
<vehicle id="sw_271" type="type1" route="sw" depart="181.60754044762533" />
<vehicle id="es_272" type="type1" route="es" depart="181.97307708818795" />
<vehicle id="se_273" type="type1" route="se" depart="182.66363022107336" />
<vehicle id="sn_274" type="type1" route="sn" depart="182.6930335469942" />
<vehicle id="we_275" type="type1" route="we" depart="182.85930746627918" />
<vehicle id="ew_276" type="type1" route="ew" depart="183.40560280798667" />
<vehicle id="ew_277" type="type1" route="ew" depart="183.46207563586094" />
<vehicle id="ws_278" type="type1" route="ws" depart="183.62628410159533" />
<vehicle id="es_279" type="type1" route="es" depart="183.9966522849355" />
<vehicle id="sn_280" type="type1" route="sn" depart="184.22506229973385" />
<vehicle id="sn_281" type="type1" route="sn" depart="185.69541601654765" />
<vehicle id="sn_282" type="type1" route="sn" depart="185.7814065735536" />
<vehicle id="wn_283" type="type1" route="wn" depart="188.22845484147297" />
<vehicle id="sn_284" type="type1" route="sn" depart="188.8709615968099" />
<vehicle id="ns_285" type="type1" route="ns" depart="191.7905618152632" />
<vehicle id="ws_286" type="type1" route="ws" depart="191.98210145437307" />
<vehicle id="sw_287" type="type1" route="sw" depart="192.60585817464022" />
<vehicle id="ws_288" type="type1" route="ws" depart="192.9009033051284" />
<vehicle id="ew_289" type="type1" route="ew" depart="193.15292017689026" />
<vehicle id="ws_290" type="type1" route="ws" depart="194.70986324113937" />
<vehicle id="se_291" type="type1" route="se" depart="196.28545311020224" />
<vehicle id="nw_292" type="type1" route="nw" depart="197.42113547387225" />
<vehicle id="wn_293" type="type1" route="wn" depart="197.48944899474623" />
<vehicle id="se_294" type="type1" route="se" depart="197.70836912397" />
<vehicle id="ws_295" type="type1" route="ws" depart="198.41606106781077" />
<vehicle id="wn_296" type="type1" route="wn" depart="198.42393194840764" />
<vehicle id="ns_297" type="type1" route="ns" depart="198.86156217022705" />
<vehicle id="wn_298" type="type1" route="wn" depart="199.05152735258474" />
<vehicle id="ws_299" type="type1" route="ws" depart="199.3362163993037" />
<vehicle id="es_300" type="type1" route="es" depart="199.88063954662687" />
<vehicle id="ne_301" type="type1" route="ne" depart="200.2598695306135" />
<vehicle id="wn_302" type="type1" route="wn" depart="200.59146028312327" />
<vehicle id="ew_303" type="type1" route="ew" depart="201.2479247182837" />
<vehicle id="we_304" type="type1" route="we" depart="202.00728945529852" />
<vehicle id="ew_305" type="type1" route="ew" depart="203.20222470514912" />
<vehicle id="ns_306" type="type1" route="ns" depart="203.30455394542284" />
<vehicle id="ws_307" type="type1" route="ws" depart="203.95137696471025" />
<vehicle id="se_308" type="type1" route="se" depart="205.29091144858742" />
<vehicle id="wn_309" type="type1" route="wn" depart="205.6656589122173" />
<vehicle id="ew_310" type="type1" route="ew" depart="206.14997324480873" />
<vehicle id="es_311" type="type1" route="es" depart="206.963910342208" />
<vehicle id="wn_312" type="type1" route="wn" depart="208.4982356391306" />
<vehicle id="nw_313" type="type1" route="nw" depart="208.63509041158008" />
<vehicle id="en_314" type="type1" route="en" depart="209.04510200811265" />
<vehicle id="nw_315" type="type1" route="nw" depart="210.56547661272276" />
<vehicle id="es_316" type="type1" route="es" depart="211.61861509827412" />
<vehicle id="ns_317" type="type1" route="ns" depart="212.78795230812796" />
<vehicle id="sw_318" type="type1" route="sw" depart="214.59164485173798" />
<vehicle id="ne_319" type="type1" route="ne" depart="216.26750410249116" />
<vehicle id="en_320" type="type1" route="en" depart="216.8831982559172" />
<vehicle id="wn_321" type="type1" route="wn" depart="217.32764903217586" />
<vehicle id="ws_322" type="type1" route="ws" depart="218.2046468715239" />
<vehicle id="ns_323" type="type1" route="ns" depart="218.59478838738485" />
<vehicle id="se_324" type="type1" route="se" depart="220.88697405777899" />
<vehicle id="en_325" type="type1" route="en" depart="221.63405560452412" />
<vehicle id="wn_326" type="type1" route="wn" depart="222.59271416201977" />
<vehicle id="wn_327" type="type1" route="wn" depart="222.74795219834147" />
<vehicle id="sn_328" type="type1" route="sn" depart="222.95687692483136" />
<vehicle id="wn_329" type="type1" route="wn" depart="223.1462395264463" />
<vehicle id="ne_330" type="type1" route="ne" depart="223.37134427570197" />
<vehicle id="se_331" type="type1" route="se" depart="223.46315796819707" />
<vehicle id="en_332" type="type1" route="en" depart="223.9318261742805" />
<vehicle id="ew_333" type="type1" route="ew" depart="224.3658478055076" />
<vehicle id="wn_334" type="type1" route="wn" depart="224.394304347096" />
<vehicle id="en_335" type="type1" route="en" depart="225.43428483849337" />
<vehicle id="sw_336" type="type1" route="sw" depart="225.9739428343842" />
<vehicle id="wn_337" type="type1" route="wn" depart="226.54505357343643" />
<vehicle id="ew_338" type="type1" route="ew" depart="226.67718857722062" />
<vehicle id="ne_339" type="type1" route="ne" depart="227.48514900503622" />
<vehicle id="we_340" type="type1" route="we" depart="227.51070709948158" />
<vehicle id="ws_341" type="type1" route="ws" depart="229.73582475782953" />
<vehicle id="wn_342" type="type1" route="wn" depart="231.01633971588458" />
<vehicle id="ne_343" type="type1" route="ne" depart="231.76856233397277" />
<vehicle id="ne_344" type="type1" route="ne" depart="232.44550617207787" />
<vehicle id="wn_345" type="type1" route="wn" depart="232.46859452677955" />
<vehicle id="ew_346" type="type1" route="ew" depart="232.78629486017812" />
<vehicle id="se_347" type="type1" route="se" depart="233.66123273877244" />
<vehicle id="ew_348" type="type1" route="ew" depart="235.4573979834618" />
<vehicle id="wn_349" type="type1" route="wn" depart="235.79877424566817" />
<vehicle id="we_350" type="type1" route="we" depart="236.88975129312274" />
<vehicle id="nw_351" type="type1" route="nw" depart="237.59755033911713" />
<vehicle id="nw_352" type="type1" route="nw" depart="237.87070316967194" />
<vehicle id="ns_353" type="type1" route="ns" depart="240.114703823768" />
<vehicle id="wn_354" type="type1" route="wn" depart="240.49750177551698" />
<vehicle id="ew_355" type="type1" route="ew" depart="240.5966158827536" />
<vehicle id="nw_356" type="type1" route="nw" depart="241.32637869710052" />
<vehicle id="ne_357" type="type1" route="ne" depart="241.4657951382855" />
<vehicle id="ws_358" type="type1" route="ws" depart="241.71633679296997" />
<vehicle id="sw_359" type="type1" route="sw" depart="242.83539066619906" />
<vehicle id="sw_360" type="type1" route="sw" depart="243.3719333110466" />
<vehicle id="ew_361" type="type1" route="ew" depart="244.5266910726543" />
<vehicle id="ns_362" type="type1" route="ns" depart="245.34848087934012" />
<vehicle id="se_363" type="type1" route="se" depart="247.67991453114183" />
<vehicle id="sn_364" type="type1" route="sn" depart="248.29103912862792" />
<vehicle id="wn_365" type="type1" route="wn" depart="248.74284411276162" />
<vehicle id="ew_366" type="type1" route="ew" depart="249.717321247168" />
<vehicle id="ne_367" type="type1" route="ne" depart="252.4308471221432" />
<vehicle id="nw_368" type="type1" route="nw" depart="252.672050287493" />
<vehicle id="sn_369" type="type1" route="sn" depart="254.4281155478836" />
<vehicle id="ws_370" type="type1" route="ws" depart="255.7027336940333" />
<vehicle id="sn_371" type="type1" route="sn" depart="256.0862322201826" />
<vehicle id="wn_372" type="type1" route="wn" depart="256.4383123145219" />
<vehicle id="sn_373" type="type1" route="sn" depart="258.16269277310346" />
<vehicle id="ws_374" type="type1" route="ws" depart="259.9057217284068" />
<vehicle id="sn_375" type="type1" route="sn" depart="260.95842348040014" />
<vehicle id="wn_376" type="type1" route="wn" depart="261.05611719514644" />
<vehicle id="nw_377" type="type1" route="nw" depart="261.4839076934201" />
<vehicle id="ew_378" type="type1" route="ew" depart="261.6220585438408" />
<vehicle id="se_379" type="type1" route="se" depart="262.8190857847057" />
<vehicle id="ew_380" type="type1" route="ew" depart="263.71924847981614" />
<vehicle id="sw_381" type="type1" route="sw" depart="263.85183777248716" />