<routes>
            <vType id="type1" accel="0.8" decel="4.5" sigma="0.5" length="5" maxSpeed="70"/>
            <vType id="rescue" vClass="emergency" speedFactor="1.5" guiShape="emergency">
                <param key="has.bluelight.device" value="true"/>
            </vType>
            <route id="ne" edges="ni eo"/>
            <route id="ns" edges="ni so"/>
            <route id="nw" edges="ni wo"/>
            <route id="en" edges="ei no"/>
            <route id="es" edges="ei so"/>
            <route id="ew" edges="ei wo"/>
            <route id="sn" edges="si no"/>
            <route id="se" edges="si eo"/>
            <route id="sw" edges="si wo"/>
            <route id="wn" edges="wi no"/>
            <route id="we" edges="wi eo"/>
            <route id="ws" edges="wi so"/>
        <vehicle id="type1_1" type="type1" route="wn" depart="6.156565178479149" />
<vehicle id="type1_2" type="type1" route="sn" depart="11.487339574939151" />
<vehicle id="type1_3" type="type1" route="ne" depart="12.427036180501155" />
<vehicle id="type1_4" type="type1" route="we" depart="15.883733206125981" />
<vehicle id="type1_5" type="type1" route="ws" depart="17.594009681771436" />
<vehicle id="type1_6" type="type1" route="ne" depart="24.59101825774868" />
<vehicle id="type1_7" type="type1" route="en" depart="24.941294279322907" />
<vehicle id="type1_8" type="type1" route="se" depart="26.82203163177325" />
<vehicle id="type1_9" type="type1" route="sw" depart="27.019473424483635" />
<vehicle id="type1_10" type="type1" route="en" depart="28.994927857384216" />
<vehicle id="type1_11" type="type1" route="ws" depart="30.82619778415379" />
<vehicle id="type1_12" type="type1" route="es" depart="31.972290136233" />
<vehicle id="type1_13" type="type1" route="wn" depart="31.98629911809916" />
<vehicle id="type1_14" type="type1" route="se" depart="32.415886059492315" />
<vehicle id="type1_15" type="type1" route="ns" depart="32.57068755132058" />
<vehicle id="type1_16" type="type1" route="se" depart="33.62772594219579" />
<vehicle id="type1_17" type="type1" route="sn" depart="34.62400165783065" />
<vehicle id="type1_18" type="type1" route="en" depart="35.037189394641864" />
<vehicle id="type1_19" type="type1" route="es" depart="36.01020026083813" />
<vehicle id="type1_20" type="type1" route="ne" depart="40.19019231465517" />
<vehicle id="type1_21" type="type1" route="en" depart="43.44078665076996" />
<vehicle id="type1_22" type="type1" route="ew" depart="48.1827816867637" />
<vehicle id="type1_23" type="type1" route="en" depart="53.1267933299583" />
<vehicle id="type1_24" type="type1" route="we" depart="53.50013170316455" />
<vehicle id="type1_25" type="type1" route="sw" depart="55.427904508529146" />
<vehicle id="type1_26" type="type1" route="ne" depart="56.86725440517813" />
<vehicle id="type1_27" type="type1" route="en" depart="57.63772157634615" />
<vehicle id="type1_28" type="type1" route="es" depart="60.76735500663535" />
<vehicle id="type1_29" type="type1" route="ns" depart="61.42445503411271" />
<vehicle id="type1_30" type="type1" route="we" depart="62.529906174652766" />
<vehicle id="type1_31" type="type1" route="ns" depart="67.29339806177578" />
<vehicle id="type1_32" type="type1" route="es" depart="67.56707235300193" />
<vehicle id="type1_33" type="type1" route="en" depart="71.97348918694168" />
<vehicle id="type1_34" type="type1" route="en" depart="72.59999182384162" />
<vehicle id="type1_35" type="type1" route="en" depart="73.01728102113168" />
<vehicle id="type1_36" type="type1" route="ws" depart="76.52629999969481" />
<vehicle id="type1_37" type="type1" route="en" depart="79.06726804349985" />
<vehicle id="type1_38" type="type1" route="ne" depart="79.52522476007132" />
<vehicle id="type1_39" type="type1" route="sw" depart="82.1088461512385" />
<vehicle id="type1_40" type="type1" route="wn" depart="85.57581218969005" />
<vehicle id="type1_41" type="type1" route="ew" depart="85.84806415283647" />
<vehicle id="type1_42" type="type1" route="se" depart="89.66272673047663" />
<vehicle id="type1_43" type="type1" route="we" depart="90.31894243681246" />
<vehicle id="type1_44" type="type1" route="ne" depart="93.84976651277205" />
<vehicle id="type1_45" type="type1" route="wn" depart="96.3443726369963" />
<vehicle id="type1_46" type="type1" route="se" depart="97.3392848380826" />
<vehicle id="type1_47" type="type1" route="sn" depart="97.84576209446065" />
<vehicle id="type1_48" type="type1" route="ns" depart="101.647507195507" />
<vehicle id="type1_49" type="type1" route="we" depart="101.88866249062093" />
<vehicle id="type1_50" type="type1" route="sn" depart="102.30392221325091" />
<vehicle id="type1_51" type="type1" route="se" depart="107.19481058541037" />
<vehicle id="type1_52" type="type1" route="sw" depart="109.73607458730551" />
<vehicle id="type1_53" type="type1" route="es" depart="114.2391975537311" />
<vehicle id="type1_54" type="type1" route="se" depart="114.59126882713626" />
<vehicle id="type1_55" type="type1" route="en" depart="119.65650992589654" />
<vehicle id="type1_56" type="type1" route="es" depart="120.25981952925765" />
<vehicle id="type1_57" type="type1" route="ws" depart="123.80708023908299" />
<vehicle id="type1_58" type="type1" route="nw" depart="124.41255927743151" />
<vehicle id="type1_59" type="type1" route="sw" depart="126.77154480687496" />
<vehicle id="type1_60" type="type1" route="wn" depart="128.7512559874058" />
<vehicle id="type1_61" type="type1" route="en" depart="129.91523983955733" />
<vehicle id="type1_62" type="type1" route="sn" depart="134.93449427672886" />
<vehicle id="type1_63" type="type1" route="sw" depart="136.06739016173248" />
<vehicle id="type1_64" type="type1" route="se" depart="139.18729650766963" />
<vehicle id="type1_65" type="type1" route="se" depart="141.52442073846586" />
<vehicle id="type1_66" type="type1" route="es" depart="142.04142078857342" />
<vehicle id="type1_67" type="type1" route="we" depart="145.11193804178873" />
<vehicle id="type1_68" type="type1" route="nw" depart="145.27488445782484" />
<vehicle id="type1_69" type="type1" route="sn" depart="145.4439175503446" />
<vehicle id="type1_70" type="type1" route="sn" depart="145.94520737811771" />
<vehicle id="type1_71" type="type1" route="we" depart="151.61170560030544" />
<vehicle id="type1_72" type="type1" route="wn" depart="152.75608668588094" />
<vehicle id="type1_73" type="type1" route="wn" depart="154.06807806249745" />
<vehicle id="type1_74" type="type1" route="we" depart="154.1985919663491" />
<vehicle id="type1_75" type="type1" route="sn" depart="155.6835697630023" />
<vehicle id="type1_76" type="type1" route="nw" depart="157.50307502824546" />
<vehicle id="type1_77" type="type1" route="es" depart="158.28875502086282" />
<vehicle id="type1_78" type="type1" route="wn" depart="161.29684048025484" />
<vehicle id="type1_79" type="type1" route="ne" depart="163.140786052621" />
<vehicle id="type1_80" type="type1" route="wn" depart="163.31820058519855" />
<vehicle id="type1_81" type="type1" route="ns" depart="168.04693774256094" />
<vehicle id="type1_82" type="type1" route="ew" depart="171.4729769598797" />
<vehicle id="type1_83" type="type1" route="sn" depart="171.65130579752463" />
<vehicle id="type1_84" type="type1" route="ne" depart="171.6685022312628" />
<vehicle id="type1_85" type="type1" route="nw" depart="172.01574875156209" />
<vehicle id="type1_86" type="type1" route="wn" depart="174.0189342169135" />
<vehicle id="type1_87" type="type1" route="sw" depart="174.7636880559309" />
<vehicle id="type1_88" type="type1" route="sn" depart="175.60890398201414" />
<vehicle id="type1_89" type="type1" route="ew" depart="175.6184463100847" />
<vehicle id="type1_90" type="type1" route="nw" depart="181.56605695647193" />
<vehicle id="type1_91" type="type1" route="en" depart="184.14895075300336" />
<vehicle id="type1_92" type="type1" route="nw" depart="187.34758674243065" />
<vehicle id="type1_93" type="type1" route="we" depart="187.6075616286667" />
<vehicle id="type1_94" type="type1" route="ns" depart="190.63528753167094" />
<vehicle id="type1_95" type="type1" route="sn" depart="191.83298050424042" />
<vehicle id="type1_96" type="type1" route="ns" depart="191.900812499269" />
<vehicle id="type1_97" type="type1" route="ws" depart="193.29889647353292" />
<vehicle id="type1_98" type="type1" route="wn" depart="198.14596529656438" />
<vehicle id="type1_99" type="type1" route="ns" depart="200.88078890916535" />
<vehicle id="type1_100" type="type1" route="we" depart="202.36716776264004" />
<vehicle id="type1_101" type="type1" route="we" depart="202.91374987167856" />
<vehicle id="type1_102" type="type1" route="ws" depart="205.53139902054443" />
<vehicle id="type1_103" type="type1" route="we" depart="206.6932076617581" />
<vehicle id="type1_104" type="type1" route="en" depart="207.71691355896155" />
<vehicle id="type1_105" type="type1" route="sn" depart="207.9441436914193" />
<vehicle id="type1_106" type="type1" route="sn" depart="211.00936273731688" />
<vehicle id="type1_107" type="type1" route="es" depart="212.8237770192771" />
<vehicle id="type1_108" type="type1" route="wn" depart="213.06424185883444" />
<vehicle id="type1_109" type="type1" route="es" depart="218.9862972875163" />
<vehicle id="type1_110" type="type1" route="es" depart="220.86582621550633" />
<vehicle id="type1_111" type="type1" route="ne" depart="221.0300091349345" />
<vehicle id="type1_112" type="type1" route="es" depart="221.20486727961364" />
<vehicle id="type1_113" type="type1" route="sn" depart="223.50996374319573" />
<vehicle id="type1_114" type="type1" route="ew" depart="223.87918719620114" />
<vehicle id="type1_115" type="type1" route="ns" depart="229.05418775392351" />
<vehicle id="type1_116" type="type1" route="wn" depart="232.59176698604998" />
<vehicle id="type1_117" type="type1" route="sw" depart="233.33807053095933" />
<vehicle id="type1_118" type="type1" route="ws" depart="238.24842008313118" />
<vehicle id="type1_119" type="type1" route="ew" depart="244.9966391935608" />
<vehicle id="type1_120" type="type1" route="ws" depart="247.68939412192327" />
<vehicle id="type1_121" type="type1" route="en" depart="248.25311151704386" />
<vehicle id="type1_122" type="type1" route="ew" depart="251.87562884264514" />
<vehicle id="type1_123" type="type1" route="nw" depart="252.00487030343004" />
<vehicle id="type1_124" type="type1" route="ns" depart="255.43906620842802" />
<vehicle id="type1_125" type="type1" route="nw" depart="258.30891894545243" />
<vehicle id="type1_126" type="type1" route="sn" depart="259.24025278495384" />
<vehicle id="type1_127" type="type1" route="nw" depart="262.95174206037456" />
<vehicle id="type1_128" type="type1" route="sw" depart="266.4746785371635" />
<vehicle id="type1_129" type="type1" route="nw" depart="266.93763718723886" />
<vehicle id="type1_130" type="type1" route="nw" depart="268.46317987512305" />
<vehicle id="type1_131" type="type1" route="ws" depart="269.72517472868446" />
<vehicle id="type1_132" type="type1" route="wn" depart="270.7248933890452" />
<vehicle id="type1_133" type="type1" route="en" depart="272.57207841841415" />
<vehicle id="type1_134" type="type1" route="ws" depart="274.9140650499717" />
<vehicle id="type1_135" type="type1" route="nw" depart="275.11228533139376" />
<vehicle id="type1_136" type="type1" route="nw" depart="276.14227491359924" />
<vehicle id="type1_137" type="type1" route="en" depart="279.899863305975" />
<vehicle id="type1_138" type="type1" route="ne" depart="285.17757231849197" />
<vehicle id="type1_139" type="type1" route="wn" depart="286.0404549641352" />
<vehicle id="type1_140" type="type1" route="ew" depart="288.5656808798064" />
<vehicle id="type1_141" type="type1" route="sw" depart="296.0012750496255" />
<vehicle id="type1_142" type="type1" route="se" depart="296.1912921539504" />
<vehicle id="type1_143" type="type1" route="sw" depart="296.5474384196258" />
<vehicle id="type1_144" type="type1" route="we" depart="300.4436871766251" />
<vehicle id="type1_145" type="type1" route="en" depart="304.00431106359963" />
<vehicle id="type1_146" type="type1" route="ws" depart="304.6183163731764" />
<vehicle id="type1_147" type="type1" route="we" depart="305.318237713538" />
<vehicle id="type1_148" type="type1" route="nw" depart="305.9275016685622" />
<vehicle id="type1_149" type="type1" route="we" depart="305.9324715187485" />
<vehicle id="type1_150" type="type1" route="ns" depart="306.84182376829995" />
<vehicle id="type1_151" type="type1" route="ne" depart="306.8815433942666" />
<vehicle id="type1_152" type="type1" route="ne" depart="307.52254608470844" />
<vehicle id="type1_153" type="type1" route="ws" depart="309.23005438263607" />
<vehicle id="type1_154" type="type1" route="we" depart="312.6221681776494" />
<vehicle id="type1_155" type="type1" route="ne" depart="314.6287494893711" />
<vehicle id="type1_156" type="type1" route="en" depart="314.6754960342696" />
<vehicle id="type1_157" type="type1" route="en" depart="316.7941601277847" />
<vehicle id="type1_158" type="type1" route="ws" depart="318.87949115766804" />
<vehicle id="type1_159" type="type1" route="es" depart="320.3868914972128" />
<vehicle id="type1_160" type="type1" route="ns" depart="327.1135094039652" />
<vehicle id="type1_161" type="type1" route="ne" depart="327.8899178332351" />
<vehicle id="type1_162" type="type1" route="we" depart="329.4065804764637" />
<vehicle id="type1_163" type="type1" route="ns" depart="333.65797641966594" />
<vehicle id="type1_164" type="type1" route="nw" depart="335.8308510905241" />
<vehicle id="type1_165" type="type1" route="ne" depart="339.59285122696025" />
<vehicle id="type1_166" type="type1" route="we" depart="340.6097463802015" />
<vehicle id="type1_167" type="type1" route="se" depart="346.24955308262855" />
<vehicle id="type1_168" type="type1" route="es" depart="346.37035013266797" />
<vehicle id="type1_169" type="type1" route="en" depart="348.9630051511492" />
<vehicle id="type1_170" type="type1" route="we" depart="356.2434188178224" />
<vehicle id="type1_171" type="type1" route="we" depart="357.9161754144694" />
<vehicle id="type1_172" type="type1" route="wn" depart="361.92429459255044" />
<vehicle id="type1_173" type="type1" route="sw" depart="368.4278049275251" />
<vehicle id="type1_174" type="type1" route="ws" depart="370.3936345469601" />
<vehicle id="type1_175" type="type1" route="ws" depart="370.7998600104972" />
<vehicle id="type1_176" type="type1" route="ew" depart="370.8435561087758" />
<vehicle id="type1_177" type="type1" route="ns" depart="371.36293796725806" />
<vehicle id="type1_178" type="type1" route="we" depart="375.03011430913216" />
<vehicle id="type1_179" type="type1" route="ew" depart="378.6552959015239" />
<vehicle id="type1_180" type="type1" route="en" depart="379.16322943457584" />
<vehicle id="type1_181" type="type1" route="ne" depart="385.0136889943617" />
<vehicle id="type1_182" type="type1" route="ws" depart="385.6185984937192" />
<vehicle id="type1_183" type="type1" route="se" depart="387.858226040228" />
<vehicle id="type1_184" type="type1" route="ne" depart="390.55328713033566" />
<vehicle id="type1_185" type="type1" route="ne" depart="390.55937613930513" />
<vehicle id="type1_186" type="type1" route="ns" depart="390.6609067860915" />
<vehicle id="type1_187" type="type1" route="sn" depart="393.1999777720325" />
<vehicle id="type1_188" type="type1" route="ns" depart="395.577612938218" />
<vehicle id="type1_189" type="type1" route="wn" depart="398.99751110477644" />
<vehicle id="type1_190" type="type1" route="nw" depart="402.0391833737163" />
<vehicle id="type1_191" type="type1" route="sw" depart="402.6714769167808" />
<vehicle id="type1_192" type="type1" route="we" depart="404.13010869228975" />
<vehicle id="type1_193" type="type1" route="wn" depart="407.00894099024" />
<vehicle id="type1_194" type="type1" route="sw" depart="408.58813872458296" />
<vehicle id="type1_195" type="type1" route="sn" depart="415.3648249610163" />
<vehicle id="type1_196" type="type1" route="es" depart="416.5136555803404" />
<vehicle id="type1_197" type="type1" route="ne" depart="419.1436947869237" />
<vehicle id="type1_198" type="type1" route="sn" depart="422.3064208793354" />
<vehicle id="type1_199" type="type1" route="nw" depart="423.30021121795977" />
<vehicle id="type1_200" type="type1" route="ne" depart="425.53555605743117" />
<vehicle id="type1_201" type="type1" route="ns" depart="426.88513570783107" />
<vehicle id="type1_202" type="type1" route="se" depart="427.76758489358014" />
<vehicle id="type1_203" type="type1" route="sw" depart="428.84707351488294" />
<vehicle id="type1_204" type="type1" route="sw" depart="431.89666194731603" />
<vehicle id="type1_205" type="type1" route="sn" depart="433.3135802181744" />
<vehicle id="type1_206" type="type1" route="we" depart="438.39401225967663" />
<vehicle id="type1_207" type="type1" route="nw" depart="440.21824822624643" />
<vehicle id="type1_208" type="type1" route="sn" depart="443.48933355536525" />
<vehicle id="type1_209" type="type1" route="ne" depart="443.5146928779175" />
<vehicle id="type1_210" type="type1" route="es" depart="444.05600031537926" />
<vehicle id="type1_211" type="type1" route="es" depart="444.70277594153174" />
<vehicle id="type1_212" type="type1" route="we" depart="449.2018297338745" />
<vehicle id="type1_213" type="type1" route="ne" depart="450.65665575115105" />
<vehicle id="type1_214" type="type1" route="nw" depart="452.15786253140095" />
<vehicle id="type1_215" type="type1" route="wn" depart="457.71355356939586" />
<vehicle id="type1_216" type="type1" route="en" depart="458.5854125281323" />
<vehicle id="type1_217" type="type1" route="ns" depart="458.9765767432866" />
<vehicle id="type1_218" type="type1" route="se" depart="459.9369960488402" />
<vehicle id="type1_219" type="type1" route="nw" depart="460.5040280703886" />
<vehicle id="type1_220" type="type1" route="ne" depart="460.8104062185568" />
<vehicle id="type1_221" type="type1" route="sn" depart="467.29313147726566" />
<vehicle id="type1_222" type="type1" route="ew" depart="468.55937952420857" />
<vehicle id="type1_223" type="type1" route="wn" depart="474.1344823542285" />
<vehicle id="type1_224" type="type1" route="es" depart="476.70352905963705" />
<vehicle id="type1_225" type="type1" route="ns" depart="477.5273780498325" />
<vehicle id="type1_226" type="type1" route="ne" depart="477.62924335179997" />
<vehicle id="type1_227" type="type1" route="wn" depart="478.76412006102055" />
<vehicle id="type1_228" type="type1" route="nw" depart="478.90988592588434" />
<vehicle id="type1_229" type="type1" route="sw" depart="479.05554436106223" />
<vehicle id="type1_230" type="type1" route="ws" depart="482.1444848429679" />
<vehicle id="type1_231" type="type1" route="ns" depart="486.43785729519516" />
<vehicle id="type1_232" type="type1" route="we" depart="487.4475052321328" />
<vehicle id="type1_233" type="type1" route="en" depart="489.98161809689657" />
<vehicle id="type1_234" type="type1" route="nw" depart="490.2504172637979" />
<vehicle id="type1_235" type="type1" route="en" depart="493.9217614949132" />
<vehicle id="type1_236" type="type1" route="nw" depart="493.98185140385146" />
<vehicle id="type1_237" type="type1" route="nw" depart="500.802226274936" />
<vehicle id="type1_238" type="type1" route="ws" depart="501.83163364314413" />
<vehicle id="type1_239" type="type1" route="wn" depart="504.4136126439541" />
<vehicle id="type1_240" type="type1" route="wn" depart="506.42614289816834" />
<vehicle id="type1_241" type="type1" route="en" depart="508.0630126435968" />
<vehicle id="type1_242" type="type1" route="ws" depart="511.11410516189665" />
<vehicle id="type1_243" type="type1" route="ew" depart="511.8232263838044" />
<vehicle id="type1_244" type="type1" route="ns" depart="514.6882200441993" />
<vehicle id="type1_245" type="type1" route="ne" depart="516.4826873011217" />
<vehicle id="type1_246" type="type1" route="we" depart="518.1408153650239" />
<vehicle id="type1_247" type="type1" route="we" depart="524.5258017415061" />
<vehicle id="type1_248" type="type1" route="ne" depart="525.4163879780276" />
<vehicle id="type1_249" type="type1" route="ws" depart="526.0447715935169" />
<vehicle id="type1_250" type="type1" route="wn" depart="526.0503460076579" />
<vehicle id="type1_251" type="type1" route="ws" depart="526.9497020566307" />
<vehicle id="type1_252" type="type1" route="ew" depart="527.7216395325586" />
<vehicle id="type1_253" type="type1" route="nw" depart="528.4114922857229" />
<vehicle id="type1_254" type="type1" route="sn" depart="531.4483040474028" />
<vehicle id="type1_255" type="type1" route="ne" depart="531.6186853103831" />
<vehicle id="type1_256" type="type1" route="nw" depart="535.0256019793941" />
<vehicle id="type1_257" type="type1" route="sn" depart="535.3829555484726" />
<vehicle id="type1_258" type="type1" route="nw" depart="535.398418754429" />
<vehicle id="type1_259" type="type1" route="sn" depart="536.0428791600363" />
<vehicle id="type1_260" type="type1" route="sn" depart="541.2778268616802" />
<vehicle id="type1_261" type="type1" route="ws" depart="542.6860356564852" />
<vehicle id="type1_262" type="type1" route="sw" depart="542.8278884172018" />
<vehicle id="type1_263" type="type1" route="nw" depart="545.6729492398657" />
<vehicle id="type1_264" type="type1" route="es" depart="547.4650572237213" />
<vehicle id="type1_265" type="type1" route="ew" depart="548.5374074765932" />
<vehicle id="type1_266" type="type1" route="ws" depart="549.0161137721376" />
<vehicle id="type1_267" type="type1" route="sn" depart="550.2850220727754" />
<vehicle id="type1_268" type="type1" route="ws" depart="551.5898721096438" />
<vehicle id="type1_269" type="type1" route="sw" depart="558.8120301509686" />
<vehicle id="type1_270" type="type1" route="we" depart="565.341705269301" />
<vehicle id="type1_271" type="type1" route="ne" depart="566.7739481230067" />
<vehicle id="type1_272" type="type1" route="sn" depart="567.2426056172181" />
<vehicle id="type1_273" type="type1" route="es" depart="567.8301394634585" />
<vehicle id="type1_274" type="type1" route="ne" depart="567.9835412802945" />
<vehicle id="type1_275" type="type1" route="en" depart="568.0819465703931" />
<vehicle id="type1_276" type="type1" route="en" depart="570.4113210739475" />
<vehicle id="type1_277" type="type1" route="ne" depart="571.4904893454393" />
<vehicle id="type1_278" type="type1" route="es" depart="572.071013559758" />
<vehicle id="type1_279" type="type1" route="ew" depart="572.1923616687335" />
<vehicle id="type1_280" type="type1" route="ws" depart="572.8712923142771" />
<vehicle id="type1_281" type="type1" route="ne" depart="576.7339102134555" />
<vehicle id="type1_282" type="type1" route="ew" depart="577.4704804020433" />
<vehicle id="type1_283" type="type1" route="ew" depart="578.2193998908193" />
<vehicle id="type1_284" type="type1" route="we" depart="578.504552092799" />
<vehicle id="type1_285" type="type1" route="se" depart="579.9867993648216" />
<vehicle id="type1_286" type="type1" route="wn" depart="582.2122790387984" />
<vehicle id="type1_287" type="type1" route="we" depart="582.6274467202713" />
<vehicle id="type1_288" type="type1" route="se" depart="586.4679097173242" />
<vehicle id="type1_289" type="type1" route="wn" depart="586.5334725740643" />
<vehicle id="type1_290" type="type1" route="sn" depart="587.5849842062428" />
<vehicle id="type1_291" type="type1" route="we" depart="592.6225233578724" />
<vehicle id="type1_292" type="type1" route="ne" depart="592.9151690322558" />
<vehicle id="type1_293" type="type1" route="we" depart="593.1822081138216" />
<vehicle id="type1_294" type="type1" route="sw" depart="593.5889668570583" />
<vehicle id="type1_295" type="type1" route="es" depart="593.9139230543447" />
<vehicle id="type1_296" type="type1" route="ew" depart="596.5693872782936" />
<vehicle id="type1_297" type="type1" route="se" depart="597.0176754744964" />
<vehicle id="type1_298" type="type1" route="ns" depart="597.7303467595622" />
<vehicle id="type1_299" type="type1" route="sw" depart="597.8433152897867" />
<vehicle id="type1_300" type="type1" route="we" depart="598.8731793939759" />
<vehicle id="type1_301" type="type1" route="es" depart="600.4881502611283" />
<vehicle id="type1_302" type="type1" route="sw" depart="601.7699641425246" />
<vehicle id="type1_303" type="type1" route="we" depart="602.0372527595448" />
<vehicle id="type1_304" type="type1" route="ne" depart="602.0478961813677" />
<vehicle id="type1_305" type="type1" route="ns" depart="603.0903696097763" />
<vehicle id="type1_306" type="type1" route="se" depart="603.4528196790648" />
<vehicle id="type1_307" type="type1" route="nw" depart="605.1505896768205" />
<vehicle id="type1_308" type="type1" route="ew" depart="607.1463793919781" />
<vehicle id="type1_309" type="type1" route="es" depart="607.2255542923378" />
<vehicle id="type1_310" type="type1" route="ew" depart="613.1147740427502" />
<vehicle id="type1_311" type="type1" route="wn" depart="613.8648676956765" />
<vehicle id="type1_312" type="type1" route="ws" depart="615.6238303867302" />
<vehicle id="type1_313" type="type1" route="ns" depart="615.6664003470673" />
<vehicle id="type1_314" type="type1" route="sn" depart="615.95540326058" />
<vehicle id="type1_315" type="type1" route="es" depart="622.4348561643222" />
<vehicle id="type1_316" type="type1" route="en" depart="630.0081164987888" />
<vehicle id="type1_317" type="type1" route="ne" depart="638.0733101978038" />
<vehicle id="type1_318" type="type1" route="sw" depart="643.4469184192162" />
<vehicle id="type1_319" type="type1" route="nw" depart="648.2829909131848" />
<vehicle id="type1_320" type="type1" route="es" depart="649.3665996748475" />
<vehicle id="type1_321" type="type1" route="ws" depart="656.4322043759443" />
<vehicle id="type1_322" type="type1" route="ns" depart="657.1018970800278" />
<vehicle id="type1_323" type="type1" route="nw" depart="663.1471235302026" />
<vehicle id="type1_324" type="type1" route="ne" depart="667.847830148524" />
<vehicle id="type1_325" type="type1" route="sn" depart="668.0623520932193" />
<vehicle id="type1_326" type="type1" route="ws" depart="668.4648152829662" />
<vehicle id="type1_327" type="type1" route="nw" depart="668.6299980302842" />
<vehicle id="type1_328" type="type1" route="nw" depart="669.1845651512069" />
<vehicle id="type1_329" type="type1" route="ne" depart="669.5443976033689" />
<vehicle id="type1_330" type="type1" route="wn" depart="670.9097178372641" />
<vehicle id="type1_331" type="type1" route="se" depart="673.2622424408852" />
<vehicle id="type1_332" type="type1" route="sn" depart="678.1210361732336" />
<vehicle id="type1_333" type="type1" route="sn" depart="681.5443150068064" />
<vehicle id="type1_334" type="type1" route="wn" depart="683.589996783588" />
<vehicle id="type1_335" type="type1" route="nw" depart="683.7317942913154" />
<vehicle id="type1_336" type="type1" route="en" depart="697.277966974792" />
<vehicle id="type1_337" type="type1" route="nw" depart="697.5110445428236" />
<vehicle id="type1_338" type="type1" route="wn" depart="697.737269778486" />
<vehicle id="type1_339" type="type1" route="wn" depart="704.5504286393149" />
<vehicle id="type1_340" type="type1" route="es" depart="708.7800115688218" />
<vehicle id="type1_341" type="type1" route="wn" depart="709.6643742377521" />
<vehicle id="type1_342" type="type1" route="wn" depart="711.168475974795" />
<vehicle id="type1_343" type="type1" route="ws" depart="712.0849780690198" />
<vehicle id="type1_344" type="type1" route="en" depart="714.5812915099144" />
<vehicle id="type1_345" type="type1" route="wn" depart="714.9614909634125" />
<vehicle id="type1_346" type="type1" route="we" depart="717.3006296025369" />
<vehicle id="type1_347" type="type1" route="ew" depart="717.4529713032825" />
<vehicle id="type1_348" type="type1" route="sn" depart="717.4736609511395" />
<vehicle id="type1_349" type="type1" route="se" depart="717.8347669267179" />
<vehicle id="type1_350" type="type1" route="ew" depart="721.2657865777918" />
<vehicle id="type1_351" type="type1" route="wn" depart="730.0763197308285" />
<vehicle id="type1_352" type="type1" route="ne" depart="730.2757253035799" />
<vehicle id="type1_353" type="type1" route="wn" depart="731.5270835164059" />
<vehicle id="type1_354" type="type1" route="es" depart="733.1806875478356" />
<vehicle id="type1_355" type="type1" route="sn" depart="735.1229238467873" />
<vehicle id="type1_356" type="type1" route="sn" depart="745.5967708646263" />
<vehicle id="type1_357" type="type1" route="nw" depart="745.7124302241233" />
<vehicle id="type1_358" type="type1" route="se" depart="747.1516337625853" />
<vehicle id="type1_359" type="type1" route="sn" depart="747.499530164059" />
<vehicle id="type1_360" type="type1" route="ns" depart="751.9982391353145" />
<vehicle id="type1_361" type="type1" route="sn" depart="752.5263099704625" />
<vehicle id="type1_362" type="type1" route="ns" depart="754.0347582850463" />
<vehicle id="type1_363" type="type1" route="sn" depart="754.7067182984657" />
<vehicle id="type1_364" type="type1" route="ne" depart="755.317492322157" />
<vehicle id="type1_365" type="type1" route="ws" depart="756.3152885616312" />
<vehicle id="type1_366" type="type1" route="sw" depart="757.1428050681603" />
<vehicle id="type1_367" type="type1" route="ew" depart="757.4356133377781" />
<vehicle id="type1_368" type="type1" route="nw" depart="759.784290050469" />
<vehicle id="type1_369" type="type1" route="ns" depart="760.2486804816402" />
<vehicle id="type1_370" type="type1" route="wn" depart="762.4033276957845" />
<vehicle id="type1_371" type="type1" route="ew" depart="767.6007773949448" />
<vehicle id="type1_372" type="type1" route="en" depart="777.9718715503192" />
<vehicle id="type1_373" type="type1" route="sw" depart="778.6843397500812" />
<vehicle id="type1_374" type="type1" route="wn" depart="779.4404135969803" />