<routes>
            <vType id="type1" accel="0.8" decel="4.5" sigma="0.5" length="5" maxSpeed="70"/>
            <vType id="rescue" vClass="emergency" speedFactor="1.5" guiShape="emergency">
                <param key="has.bluelight.device" value="true"/>
            </vType>
            <route id="ne" edges="ni eo"/>
            <route id="ns" edges="ni so"/>
            <route id="nw" edges="ni wo"/>
            <route id="en" edges="ei no"/>
            <route id="es" edges="ei so"/>
            <route id="ew" edges="ei wo"/>
            <route id="sn" edges="si no"/>
            <route id="se" edges="si eo"/>
            <route id="sw" edges="si wo"/>
            <route id="wn" edges="wi no"/>
            <route id="we" edges="wi eo"/>
            <route id="ws" edges="wi so"/>
        <vehicle id="type1_1" type="type1" route="se" depart="0.17832860722337224" />
<vehicle id="type1_2" type="type1" route="ne" depart="2.2007401241825795" />
<vehicle id="type1_3" type="type1" route="ws" depart="2.7373556812849418" />
<vehicle id="type1_4" type="type1" route="wn" depart="3.013491258831945" />
<vehicle id="type1_5" type="type1" route="ns" depart="4.057005382207684" />
<vehicle id="type1_6" type="type1" route="ns" depart="4.27135809498831" />
<vehicle id="type1_7" type="type1" route="sn" depart="6.740915177686505" />
<vehicle id="type1_8" type="type1" route="se" depart="7.209115439296241" />
<vehicle id="type1_9" type="type1" route="sn" depart="8.28647336350813" />
<vehicle id="type1_10" type="type1" route="we" depart="8.31608696412647" />
<vehicle id="type1_11" type="type1" route="sn" depart="9.467018256129315" />
<vehicle id="type1_12" type="type1" route="es" depart="9.888130535314597" />
<vehicle id="type1_13" type="type1" route="nw" depart="10.511161760441942" />
<vehicle id="type1_14" type="type1" route="en" depart="11.805094343450008" />
<vehicle id="type1_15" type="type1" route="wn" depart="12.328368582442227" />
<vehicle id="type1_16" type="type1" route="es" depart="12.456330526665681" />
<vehicle id="type1_17" type="type1" route="sw" depart="13.017636484362079" />
<vehicle id="type1_18" type="type1" route="wn" depart="18.861634840030057" />
<vehicle id="type1_19" type="type1" route="sw" depart="20.154827154672713" />
<vehicle id="type1_20" type="type1" route="we" depart="20.232917319487395" />
<vehicle id="type1_21" type="type1" route="sn" depart="20.709890969076287" />
<vehicle id="type1_22" type="type1" route="en" depart="23.197856462466234" />
<vehicle id="type1_23" type="type1" route="wn" depart="23.272599327307773" />
<vehicle id="type1_24" type="type1" route="ne" depart="25.08667995504304" />
<vehicle id="type1_25" type="type1" route="ne" depart="25.116814804411007" />
<vehicle id="type1_26" type="type1" route="se" depart="27.470789224959493" />
<vehicle id="type1_27" type="type1" route="es" depart="28.08844704083411" />
<vehicle id="type1_28" type="type1" route="en" depart="31.034788502968922" />
<vehicle id="type1_29" type="type1" route="sn" depart="31.83811918305228" />
<vehicle id="type1_30" type="type1" route="sw" depart="31.872477890724777" />
<vehicle id="type1_31" type="type1" route="ne" depart="32.372086631236165" />
<vehicle id="type1_32" type="type1" route="sn" depart="33.38974893072484" />
<vehicle id="type1_33" type="type1" route="ew" depart="33.82132250283332" />
<vehicle id="type1_34" type="type1" route="we" depart="34.661006235882304" />
<vehicle id="type1_35" type="type1" route="es" depart="36.326400949422236" />
<vehicle id="type1_36" type="type1" route="es" depart="36.9339746556646" />
<vehicle id="type1_37" type="type1" route="we" depart="37.902699225639815" />
<vehicle id="type1_38" type="type1" route="en" depart="37.97846465736745" />
<vehicle id="type1_39" type="type1" route="ws" depart="40.22794809619903" />
<vehicle id="type1_40" type="type1" route="sn" depart="40.49911090702497" />
<vehicle id="type1_41" type="type1" route="es" depart="40.93082835168854" />
<vehicle id="type1_42" type="type1" route="sw" depart="42.10823949707149" />
<vehicle id="type1_43" type="type1" route="ws" depart="44.39493642575298" />
<vehicle id="type1_44" type="type1" route="es" depart="45.88911353831765" />
<vehicle id="type1_45" type="type1" route="ns" depart="46.537583633786376" />
<vehicle id="type1_46" type="type1" route="ws" depart="47.01963135623921" />
<vehicle id="type1_47" type="type1" route="sn" depart="47.22467715035311" />
<vehicle id="type1_48" type="type1" route="sn" depart="48.51285387068806" />
<vehicle id="type1_49" type="type1" route="nw" depart="48.60046170023636" />
<vehicle id="type1_50" type="type1" route="sw" depart="49.08178843492418" />
<vehicle id="type1_51" type="type1" route="es" depart="50.77012804101183" />
<vehicle id="type1_52" type="type1" route="ws" depart="53.61027937602408" />
<vehicle id="type1_53" type="type1" route="ws" depart="54.64949927042456" />
<vehicle id="type1_54" type="type1" route="ws" depart="54.74196387294478" />
<vehicle id="type1_55" type="type1" route="sn" depart="55.25547649178321" />
<vehicle id="type1_56" type="type1" route="ns" depart="56.244894811173715" />
<vehicle id="type1_57" type="type1" route="en" depart="56.70904921005934" />
<vehicle id="type1_58" type="type1" route="wn" depart="57.76172223830449" />
<vehicle id="type1_59" type="type1" route="sn" depart="58.75537541636895" />
<vehicle id="type1_60" type="type1" route="ne" depart="58.93171518710979" />
<vehicle id="type1_61" type="type1" route="es" depart="60.24435587353429" />
<vehicle id="type1_62" type="type1" route="ws" depart="62.08250201426833" />
<vehicle id="type1_63" type="type1" route="wn" depart="62.40903713661015" />
<vehicle id="type1_64" type="type1" route="ws" depart="62.45971544650583" />
<vehicle id="type1_65" type="type1" route="we" depart="63.00829512418365" />
<vehicle id="type1_66" type="type1" route="sn" depart="64.58161959616334" />
<vehicle id="type1_67" type="type1" route="ws" depart="65.7534354084527" />
<vehicle id="type1_68" type="type1" route="we" depart="66.51978509983681" />
<vehicle id="type1_69" type="type1" route="en" depart="70.70345143970675" />
<vehicle id="type1_70" type="type1" route="en" depart="71.1450569675959" />
<vehicle id="type1_71" type="type1" route="ws" depart="72.27028928240127" />
<vehicle id="type1_72" type="type1" route="ew" depart="73.8456223323644" />
<vehicle id="type1_73" type="type1" route="ws" depart="74.53393467551888" />
<vehicle id="type1_74" type="type1" route="en" depart="76.24370132582278" />
<vehicle id="type1_75" type="type1" route="we" depart="76.49823995940044" />
<vehicle id="type1_76" type="type1" route="ne" depart="76.97435312330276" />
<vehicle id="type1_77" type="type1" route="sw" depart="77.40501392820347" />
<vehicle id="type1_78" type="type1" route="nw" depart="77.9399752377618" />
<vehicle id="type1_79" type="type1" route="ws" depart="80.30613435240625" />
<vehicle id="type1_80" type="type1" route="we" depart="80.78476080520488" />
<vehicle id="type1_81" type="type1" route="wn" depart="81.20389101241275" />
<vehicle id="type1_82" type="type1" route="en" depart="81.89867204344901" />
<vehicle id="type1_83" type="type1" route="ws" depart="84.03013109374805" />
<vehicle id="type1_84" type="type1" route="wn" depart="85.05004216410403" />
<vehicle id="type1_85" type="type1" route="ew" depart="85.97823028474654" />
<vehicle id="type1_86" type="type1" route="sn" depart="86.08500149883093" />
<vehicle id="type1_87" type="type1" route="wn" depart="86.78501124945562" />
<vehicle id="type1_88" type="type1" route="we" depart="88.50665967488662" />
<vehicle id="type1_89" type="type1" route="sn" depart="89.38619670573961" />
<vehicle id="type1_90" type="type1" route="se" depart="89.532053708944" />
<vehicle id="type1_91" type="type1" route="ns" depart="90.39724082360455" />
<vehicle id="type1_92" type="type1" route="sw" depart="90.74777594617225" />
<vehicle id="type1_93" type="type1" route="en" depart="91.71534686678889" />
<vehicle id="type1_94" type="type1" route="ws" depart="92.5584024032052" />
<vehicle id="type1_95" type="type1" route="en" depart="93.03559789664297" />
<vehicle id="type1_96" type="type1" route="ws" depart="93.1241371793154" />
<vehicle id="type1_97" type="type1" route="es" depart="95.09386161641073" />
<vehicle id="type1_98" type="type1" route="nw" depart="97.95179210377778" />
<vehicle id="type1_99" type="type1" route="wn" depart="99.18916348508318" />
<vehicle id="type1_100" type="type1" route="nw" depart="99.58847673810811" />
<vehicle id="type1_101" type="type1" route="ne" depart="99.87402569538628" />
<vehicle id="type1_102" type="type1" route="sn" depart="100.9663000373308" />
<vehicle id="type1_103" type="type1" route="se" depart="102.40598281274626" />
<vehicle id="type1_104" type="type1" route="wn" depart="103.09786582327223" />
<vehicle id="type1_105" type="type1" route="wn" depart="105.86031243659903" />
<vehicle id="type1_106" type="type1" route="en" depart="106.87301098037926" />
<vehicle id="type1_107" type="type1" route="ns" depart="106.99131128155935" />
<vehicle id="type1_108" type="type1" route="ew" depart="109.66119057590723" />
<vehicle id="type1_109" type="type1" route="es" depart="110.14856124485945" />
<vehicle id="type1_110" type="type1" route="we" depart="111.00427274603508" />
<vehicle id="type1_111" type="type1" route="ne" depart="112.70076754332857" />
<vehicle id="type1_112" type="type1" route="ws" depart="113.77912477919816" />
<vehicle id="type1_113" type="type1" route="ne" depart="116.09879939112912" />
<vehicle id="type1_114" type="type1" route="ne" depart="118.07410112984894" />
<vehicle id="type1_115" type="type1" route="sw" depart="119.68694226966973" />
<vehicle id="type1_116" type="type1" route="sw" depart="121.23899436163317" />
<vehicle id="type1_117" type="type1" route="wn" depart="122.11136233495336" />
<vehicle id="type1_118" type="type1" route="ew" depart="122.70209472100696" />
<vehicle id="type1_119" type="type1" route="nw" depart="124.31713154588387" />
<vehicle id="type1_120" type="type1" route="ew" depart="124.75275352924277" />
<vehicle id="type1_121" type="type1" route="es" depart="124.79906769180273" />
<vehicle id="type1_122" type="type1" route="es" depart="124.88959285204135" />
<vehicle id="type1_123" type="type1" route="ws" depart="125.52885330537008" />
<vehicle id="type1_124" type="type1" route="ns" depart="125.6352098374124" />
<vehicle id="type1_125" type="type1" route="we" depart="126.83310492817307" />
<vehicle id="type1_126" type="type1" route="sn" depart="127.39536075336669" />
<vehicle id="type1_127" type="type1" route="nw" depart="130.0269079742033" />
<vehicle id="type1_128" type="type1" route="nw" depart="130.2583057303829" />
<vehicle id="type1_129" type="type1" route="wn" depart="130.8165230874435" />
<vehicle id="type1_130" type="type1" route="ne" depart="131.0743329054245" />
<vehicle id="type1_131" type="type1" route="ew" depart="131.4267553289742" />
<vehicle id="type1_132" type="type1" route="es" depart="132.01552545181093" />
<vehicle id="type1_133" type="type1" route="en" depart="133.7468558730466" />
<vehicle id="type1_134" type="type1" route="we" depart="134.03638779284273" />
<vehicle id="type1_135" type="type1" route="ne" depart="134.1392554001901" />
<vehicle id="type1_136" type="type1" route="nw" depart="135.68331546464103" />
<vehicle id="type1_137" type="type1" route="sw" depart="137.8929331306168" />
<vehicle id="type1_138" type="type1" route="wn" depart="138.8765619675237" />
<vehicle id="type1_139" type="type1" route="sn" depart="139.67325621802365" />
<vehicle id="type1_140" type="type1" route="es" depart="139.82723527365144" />
<vehicle id="type1_141" type="type1" route="es" depart="141.9872453304443" />
<vehicle id="type1_142" type="type1" route="we" depart="144.59731275201355" />
<vehicle id="type1_143" type="type1" route="ew" depart="146.50467420646072" />
<vehicle id="type1_144" type="type1" route="we" depart="147.97418052021862" />
<vehicle id="type1_145" type="type1" route="wn" depart="148.55005761806513" />
<vehicle id="type1_146" type="type1" route="sw" depart="148.68655559810819" />
<vehicle id="type1_147" type="type1" route="wn" depart="148.74351539512583" />
<vehicle id="type1_148" type="type1" route="sw" depart="149.07357850580604" />
<vehicle id="type1_149" type="type1" route="ne" depart="150.05162659842773" />
<vehicle id="type1_150" type="type1" route="se" depart="150.24543488707226" />
<vehicle id="type1_151" type="type1" route="ew" depart="152.41425886790802" />
<vehicle id="type1_152" type="type1" route="ws" depart="152.5837413256679" />
<vehicle id="type1_153" type="type1" route="ew" depart="154.69852411106908" />
<vehicle id="type1_154" type="type1" route="es" depart="154.85244431771733" />
<vehicle id="type1_155" type="type1" route="sw" depart="156.68606244697156" />
<vehicle id="type1_156" type="type1" route="ne" depart="160.20808516045304" />
<vehicle id="type1_157" type="type1" route="wn" depart="160.51116814913152" />
<vehicle id="type1_158" type="type1" route="sn" depart="160.62200503053907" />
<vehicle id="type1_159" type="type1" route="en" depart="161.02492561403534" />
<vehicle id="type1_160" type="type1" route="ew" depart="162.19574639369762" />
<vehicle id="type1_161" type="type1" route="ns" depart="162.818721095104" />
<vehicle id="type1_162" type="type1" route="ns" depart="163.9424469603148" />
<vehicle id="type1_163" type="type1" route="es" depart="166.634528443128" />
<vehicle id="type1_164" type="type1" route="nw" depart="166.73899436843777" />
<vehicle id="type1_165" type="type1" route="nw" depart="166.74901046086958" />
<vehicle id="type1_166" type="type1" route="ne" depart="168.23746036378682" />
<vehicle id="type1_167" type="type1" route="es" depart="168.84010406263215" />
<vehicle id="type1_168" type="type1" route="ew" depart="169.47521724910013" />
<vehicle id="type1_169" type="type1" route="wn" depart="170.22331858223285" />
<vehicle id="type1_170" type="type1" route="ns" depart="170.6948760186666" />
<vehicle id="type1_171" type="type1" route="ne" depart="170.8738092008468" />
<vehicle id="type1_172" type="type1" route="sn" depart="170.93470902724317" />
<vehicle id="type1_173" type="type1" route="ne" depart="171.21753076445796" />
<vehicle id="type1_174" type="type1" route="sn" depart="172.54893728803933" />
<vehicle id="type1_175" type="type1" route="ne" depart="173.0847697917808" />
<vehicle id="type1_176" type="type1" route="es" depart="174.17060816773156" />
<vehicle id="type1_177" type="type1" route="sw" depart="174.78934997915806" />
<vehicle id="type1_178" type="type1" route="nw" depart="174.9301210959358" />
<vehicle id="type1_179" type="type1" route="ws" depart="176.5942125620599" />
<vehicle id="type1_180" type="type1" route="es" depart="178.66277803780073" />
<vehicle id="type1_181" type="type1" route="es" depart="179.69045581222824" />
<vehicle id="type1_182" type="type1" route="nw" depart="182.7353375745897" />
<vehicle id="type1_183" type="type1" route="we" depart="183.40585275675747" />
<vehicle id="type1_184" type="type1" route="ne" depart="183.59760873414214" />
<vehicle id="type1_185" type="type1" route="se" depart="183.8839137992131" />
<vehicle id="type1_186" type="type1" route="we" depart="184.50953596852003" />
<vehicle id="type1_187" type="type1" route="ne" depart="185.12006223790692" />
<vehicle id="type1_188" type="type1" route="wn" depart="185.3555768227076" />
<vehicle id="type1_189" type="type1" route="ws" depart="185.74767452822374" />
<vehicle id="type1_190" type="type1" route="se" depart="186.27423193725164" />
<vehicle id="type1_191" type="type1" route="sw" depart="187.65768645005164" />
<vehicle id="type1_192" type="type1" route="sn" depart="188.35975086693657" />
<vehicle id="type1_193" type="type1" route="ew" depart="188.86890292267555" />
<vehicle id="type1_194" type="type1" route="ew" depart="190.77886834451238" />
<vehicle id="type1_195" type="type1" route="wn" depart="192.94629156235698" />
<vehicle id="type1_196" type="type1" route="wn" depart="194.6942748352104" />
<vehicle id="type1_197" type="type1" route="ne" depart="195.2603433357026" />
<vehicle id="type1_198" type="type1" route="ne" depart="195.4555871206921" />
<vehicle id="type1_199" type="type1" route="es" depart="196.7436227895923" />
<vehicle id="type1_200" type="type1" route="ns" depart="197.95085331183878" />
<vehicle id="type1_201" type="type1" route="ws" depart="198.40612348924512" />
<vehicle id="type1_202" type="type1" route="sn" depart="204.66585090876117" />
<vehicle id="type1_203" type="type1" route="ne" depart="204.71831144087577" />
<vehicle id="type1_204" type="type1" route="nw" depart="205.42301897557954" />
<vehicle id="type1_205" type="type1" route="wn" depart="208.11498040318514" />
<vehicle id="type1_206" type="type1" route="ws" depart="209.36553464672218" />
<vehicle id="type1_207" type="type1" route="ne" depart="209.77672145693433" />
<vehicle id="type1_208" type="type1" route="sw" depart="209.80397537997362" />
<vehicle id="type1_209" type="type1" route="sn" depart="210.3186982480474" />
<vehicle id="type1_210" type="type1" route="nw" depart="211.64085414411136" />
<vehicle id="type1_211" type="type1" route="es" depart="214.1754762339382" />
<vehicle id="type1_212" type="type1" route="nw" depart="217.13711674750272" />
<vehicle id="type1_213" type="type1" route="ws" depart="219.31322264783142" />
<vehicle id="type1_214" type="type1" route="ne" depart="219.70761445719225" />
<vehicle id="type1_215" type="type1" route="ne" depart="219.79909717838106" />
<vehicle id="type1_216" type="type1" route="ns" depart="220.26106588642506" />
<vehicle id="type1_217" type="type1" route="se" depart="220.4117262035114" />
<vehicle id="type1_218" type="type1" route="we" depart="221.21772561866567" />
<vehicle id="type1_219" type="type1" route="we" depart="223.02382183630613" />
<vehicle id="type1_220" type="type1" route="nw" depart="225.8964473982558" />
<vehicle id="type1_221" type="type1" route="en" depart="227.9854220614505" />
<vehicle id="type1_222" type="type1" route="ne" depart="229.50566945502848" />
<vehicle id="type1_223" type="type1" route="es" depart="232.2488765706696" />
<vehicle id="type1_224" type="type1" route="ne" depart="233.46504138393942" />
<vehicle id="type1_225" type="type1" route="ew" depart="234.73778372348727" />
<vehicle id="type1_226" type="type1" route="sw" depart="234.79161956234233" />
<vehicle id="type1_227" type="type1" route="wn" depart="235.88009895908635" />
<vehicle id="type1_228" type="type1" route="se" depart="237.24435981634628" />
<vehicle id="type1_229" type="type1" route="se" depart="237.52922528321446" />
<vehicle id="type1_230" type="type1" route="sw" depart="239.35781123266918" />
<vehicle id="type1_231" type="type1" route="en" depart="245.1870243258244" />
<vehicle id="type1_232" type="type1" route="se" depart="246.02007824946804" />
<vehicle id="type1_233" type="type1" route="ws" depart="247.3368587411277" />
<vehicle id="type1_234" type="type1" route="es" depart="248.43990559839568" />
<vehicle id="type1_235" type="type1" route="ne" depart="248.49996354068105" />
<vehicle id="type1_236" type="type1" route="wn" depart="248.62152644433638" />
<vehicle id="type1_237" type="type1" route="sn" depart="250.27434205104564" />
<vehicle id="type1_238" type="type1" route="nw" depart="251.81034903937035" />
<vehicle id="type1_239" type="type1" route="sn" depart="252.2397802603296" />
<vehicle id="type1_240" type="type1" route="ew" depart="253.2747082963987" />
<vehicle id="type1_241" type="type1" route="ne" depart="253.42640575784634" />
<vehicle id="type1_242" type="type1" route="ws" depart="256.8101487775288" />
<vehicle id="type1_243" type="type1" route="sw" depart="259.3514154125454" />
<vehicle id="type1_244" type="type1" route="ws" depart="260.3085602527275" />
<vehicle id="type1_245" type="type1" route="ew" depart="260.94102587843093" />
<vehicle id="type1_246" type="type1" route="wn" depart="261.728633742654" />
<vehicle id="type1_247" type="type1" route="ne" depart="262.93188063062496" />
<vehicle id="type1_248" type="type1" route="ew" depart="263.79557813145567" />
<vehicle id="type1_249" type="type1" route="wn" depart="265.168891830034" />
<vehicle id="type1_250" type="type1" route="we" depart="266.47764713159467" />
<vehicle id="type1_251" type="type1" route="we" depart="266.49035881580613" />
<vehicle id="type1_252" type="type1" route="we" depart="268.2598138255826" />
<vehicle id="type1_253" type="type1" route="se" depart="271.6334651901932" />
<vehicle id="type1_254" type="type1" route="sn" depart="271.6596076748581" />
<vehicle id="type1_255" type="type1" route="ws" depart="272.5097686398625" />
<vehicle id="type1_256" type="type1" route="we" depart="272.6077383774022" />
<vehicle id="type1_257" type="type1" route="en" depart="272.7463402845225" />
<vehicle id="type1_258" type="type1" route="ew" depart="274.30072930494373" />
<vehicle id="type1_259" type="type1" route="sw" depart="274.45633443624206" />
<vehicle id="type1_260" type="type1" route="es" depart="276.488900762902" />
<vehicle id="type1_261" type="type1" route="ns" depart="276.7077925948926" />
<vehicle id="type1_262" type="type1" route="en" depart="282.25152583106905" />
<vehicle id="type1_263" type="type1" route="ew" depart="285.21959876133536" />
<vehicle id="type1_264" type="type1" route="es" depart="285.4472742415691" />
<vehicle id="type1_265" type="type1" route="we" depart="285.67802555901653" />
<vehicle id="type1_266" type="type1" route="ne" depart="286.0079017893576" />
<vehicle id="type1_267" type="type1" route="en" depart="287.31524142247036" />
<vehicle id="type1_268" type="type1" route="ws" depart="287.79560432355504" />
<vehicle id="type1_269" type="type1" route="ne" depart="287.9065982334659" />
<vehicle id="type1_270" type="type1" route="ew" depart="288.251743223399" />
<vehicle id="type1_271" type="type1" route="we" depart="290.2286492129126" />
<vehicle id="type1_272" type="type1" route="we" depart="291.34947988377104" />
<vehicle id="type1_273" type="type1" route="we" depart="292.83851553369146" />
<vehicle id="type1_274" type="type1" route="we" depart="293.11524666103185" />
<vehicle id="type1_275" type="type1" route="se" depart="293.75321590300194" />
<vehicle id="type1_276" type="type1" route="ns" depart="294.9934373608191" />
<vehicle id="type1_277" type="type1" route="se" depart="297.3017369416056" />
<vehicle id="type1_278" type="type1" route="es" depart="299.0046451625434" />
<vehicle id="type1_279" type="type1" route="ne" depart="300.0443056011174" />
<vehicle id="type1_280" type="type1" route="en" depart="300.2810490728701" />
<vehicle id="type1_281" type="type1" route="wn" depart="301.8152423992494" />
<vehicle id="type1_282" type="type1" route="ns" depart="303.235252203574" />
<vehicle id="type1_283" type="type1" route="se" depart="304.04117043299374" />
<vehicle id="type1_284" type="type1" route="ns" depart="306.23266857711485" />
<vehicle id="type1_285" type="type1" route="ns" depart="307.2046602032346" />
<vehicle id="type1_286" type="type1" route="en" depart="311.6178907034628" />
<vehicle id="type1_287" type="type1" route="nw" depart="313.9487688231129" />
<vehicle id="type1_288" type="type1" route="ew" depart="315.46901039215686" />
<vehicle id="type1_289" type="type1" route="en" depart="316.43450987102125" />
<vehicle id="type1_290" type="type1" route="se" depart="316.80660174676933" />
<vehicle id="type1_291" type="type1" route="es" depart="318.652089893212" />
<vehicle id="type1_292" type="type1" route="ew" depart="321.02310680542416" />
<vehicle id="type1_293" type="type1" route="wn" depart="322.1170186239305" />
<vehicle id="type1_294" type="type1" route="es" depart="322.6208598580501" />
<vehicle id="type1_295" type="type1" route="wn" depart="323.40586903461747" />
<vehicle id="type1_296" type="type1" route="sw" depart="323.5502982521008" />
<vehicle id="type1_297" type="type1" route="en" depart="327.99170991163743" />
<vehicle id="type1_298" type="type1" route="ws" depart="330.159466219868" />
<vehicle id="type1_299" type="type1" route="ne" depart="331.2295430413856" />
<vehicle id="type1_300" type="type1" route="sw" depart="332.0864892672153" />
</routes>