<routes>
            <vType id="type1" accel="0.8" decel="4.5" sigma="0.5" length="5" maxSpeed="70"/>
            <vType id="rescue" vClass="emergency" speedFactor="1.5" guiShape="emergency">
                <param key="has.bluelight.device" value="true"/>
            </vType>
            <route id="ne" edges="ni eo"/>
            <route id="ns" edges="ni so"/>
            <route id="nw" edges="ni wo"/>
            <route id="en" edges="ei no"/>
            <route id="es" edges="ei so"/>
            <route id="ew" edges="ei wo"/>
            <route id="sn" edges="si no"/>
            <route id="se" edges="si eo"/>
            <route id="sw" edges="si wo"/>
            <route id="wn" edges="wi no"/>
            <route id="we" edges="wi eo"/>
            <route id="ws" edges="wi so"/>
        
            <personFlow id="p_ns" begin="0" end="300" period="50">
                <walk route="ns"/>
            </personFlow>
                         
            <personFlow id="p_ew" begin="0" end="300" period="50">
                <walk route="ew"/>
            </personFlow>
                         
            <personFlow id="p_sn" begin="0" end="300" period="50">
                <walk route="sn"/>
            </personFlow>
                         
            <personFlow id="p_we" begin="0" end="300" period="50">
                <walk route="we"/>
            </personFlow>
                         <vehicle id="type1_1" type="type1" route="wn" depart="1.425006858892788" />
<vehicle id="type1_2" type="type1" route="sn" depart="2.9985979332103834" />
<vehicle id="type1_3" type="type1" route="en" depart="3.6447136403170504" />
<vehicle id="type1_4" type="type1" route="sn" depart="6.009698442976678" />
<vehicle id="type1_5" type="type1" route="we" depart="6.509313237293348" />
<vehicle id="type1_6" type="type1" route="ne" depart="7.316608192655613" />
<vehicle id="type1_7" type="type1" route="ew" depart="9.025470599620984" />
<vehicle id="emv_1" type="rescue" route="ws" depart="12.955905650014277" />
<vehicle id="type1_8" type="type1" route="ne" depart="21.937526786644877" />
<vehicle id="type1_9" type="type1" route="nw" depart="22.689624321862695" />
<vehicle id="type1_10" type="type1" route="se" depart="22.83482924599856" />
<vehicle id="type1_11" type="type1" route="we" depart="25.17122749228931" />
<vehicle id="type1_12" type="type1" route="nw" depart="25.771795584185988" />
<vehicle id="type1_13" type="type1" route="we" depart="26.9683260626483" />
<vehicle id="type1_14" type="type1" route="sn" depart="27.526427952475835" />
<vehicle id="emv_2" type="rescue" route="en" depart="33.035729170662826" />
<vehicle id="type1_15" type="type1" route="wn" depart="33.26933069488776" />
<vehicle id="type1_16" type="type1" route="wn" depart="33.936212047924876" />
<vehicle id="type1_17" type="type1" route="nw" depart="35.716818496825795" />
<vehicle id="type1_18" type="type1" route="es" depart="35.72858805040193" />
<vehicle id="type1_19" type="type1" route="en" depart="36.3552560413527" />
<vehicle id="type1_20" type="type1" route="sw" depart="37.29159736541793" />
<vehicle id="type1_21" type="type1" route="sn" depart="39.570023102316284" />
<vehicle id="type1_22" type="type1" route="wn" depart="39.76701039616657" />
<vehicle id="type1_23" type="type1" route="sw" depart="40.791634363476085" />
<vehicle id="emv_3" type="rescue" route="en" depart="42.058429457513945" />
<vehicle id="type1_24" type="type1" route="en" depart="46.50909936900713" />
<vehicle id="type1_25" type="type1" route="sn" depart="49.83624955138284" />
<vehicle id="type1_26" type="type1" route="wn" depart="50.04450521262188" />
<vehicle id="type1_27" type="type1" route="sw" depart="50.5099689828328" />
<vehicle id="type1_28" type="type1" route="ns" depart="51.35585347765832" />
<vehicle id="type1_29" type="type1" route="wn" depart="52.924224662057554" />
<vehicle id="type1_30" type="type1" route="wn" depart="54.84757094571849" />
<vehicle id="type1_31" type="type1" route="ns" depart="55.62413353214295" />
<vehicle id="type1_32" type="type1" route="en" depart="57.20049550221418" />
<vehicle id="emv_4" type="rescue" route="se" depart="57.22529676443342" />
<vehicle id="type1_33" type="type1" route="sn" depart="57.82742551321518" />
<vehicle id="type1_34" type="type1" route="es" depart="57.97047064278111" />
<vehicle id="type1_35" type="type1" route="sw" depart="58.22310361404164" />
<vehicle id="type1_36" type="type1" route="ns" depart="58.99388485979798" />
<vehicle id="type1_37" type="type1" route="es" depart="61.20259379798155" />
<vehicle id="type1_38" type="type1" route="we" depart="62.64583231748375" />
<vehicle id="type1_39" type="type1" route="nw" depart="63.07592653244291" />
<vehicle id="type1_40" type="type1" route="sn" depart="63.392822091410125" />
<vehicle id="type1_41" type="type1" route="ew" depart="64.03327010044266" />
<vehicle id="type1_42" type="type1" route="ne" depart="64.19009318318517" />
<vehicle id="type1_43" type="type1" route="ne" depart="66.59718803414974" />
<vehicle id="type1_44" type="type1" route="ew" depart="67.54059646470175" />
<vehicle id="type1_45" type="type1" route="es" depart="68.27967538728238" />
<vehicle id="type1_46" type="type1" route="wn" depart="70.1378981409416" />
<vehicle id="type1_47" type="type1" route="sn" depart="70.8181582692068" />
<vehicle id="type1_48" type="type1" route="en" depart="73.67527592884844" />
<vehicle id="type1_49" type="type1" route="es" depart="74.2947014138734" />
<vehicle id="type1_50" type="type1" route="wn" depart="74.98763348022047" />
<vehicle id="type1_51" type="type1" route="nw" depart="75.45148365249197" />
<vehicle id="type1_52" type="type1" route="sn" depart="76.2401393923691" />
<vehicle id="type1_53" type="type1" route="nw" depart="77.57276403088912" />
<vehicle id="type1_54" type="type1" route="wn" depart="77.65380895456593" />
<vehicle id="type1_55" type="type1" route="se" depart="78.49953108954163" />
<vehicle id="type1_56" type="type1" route="nw" depart="80.56814203127756" />
<vehicle id="emv_5" type="rescue" route="ns" depart="81.38027151460756" />
<vehicle id="type1_57" type="type1" route="se" depart="83.83236419478166" />
<vehicle id="type1_58" type="type1" route="ne" depart="85.90382080804396" />
<vehicle id="type1_59" type="type1" route="ns" depart="85.9218083540101" />
<vehicle id="type1_60" type="type1" route="ns" depart="86.50984747088792" />
<vehicle id="type1_61" type="type1" route="wn" depart="88.59038652068756" />
<vehicle id="type1_62" type="type1" route="sn" depart="88.61024677469752" />
<vehicle id="type1_63" type="type1" route="se" depart="93.3914288785483" />
<vehicle id="type1_64" type="type1" route="sn" depart="93.4072530882872" />
<vehicle id="type1_65" type="type1" route="es" depart="97.56981591634514" />
<vehicle id="type1_66" type="type1" route="ws" depart="97.71192708703671" />
<vehicle id="type1_67" type="type1" route="ew" depart="98.74467827487568" />
<vehicle id="type1_68" type="type1" route="sw" depart="99.00338523262205" />
<vehicle id="type1_69" type="type1" route="en" depart="99.72937662894346" />
<vehicle id="type1_70" type="type1" route="ne" depart="99.8378136986789" />
<vehicle id="type1_71" type="type1" route="we" depart="100.81047304943215" />
<vehicle id="type1_72" type="type1" route="wn" depart="102.55019150920552" />
<vehicle id="type1_73" type="type1" route="sn" depart="105.53202313730745" />
<vehicle id="emv_6" type="rescue" route="ns" depart="105.68659114679326" />
<vehicle id="type1_74" type="type1" route="se" depart="105.90297594535836" />
<vehicle id="type1_75" type="type1" route="en" depart="108.33442131808523" />
<vehicle id="type1_76" type="type1" route="ns" depart="109.31203730954631" />
<vehicle id="type1_77" type="type1" route="sw" depart="114.00865866021753" />
<vehicle id="emv_7" type="rescue" route="ns" depart="116.06648988080599" />
<vehicle id="type1_78" type="type1" route="es" depart="116.92308857321693" />
<vehicle id="type1_79" type="type1" route="sn" depart="116.94884552088675" />
<vehicle id="type1_80" type="type1" route="wn" depart="120.04774736438992" />
<vehicle id="emv_8" type="rescue" route="en" depart="121.40719037321959" />
<vehicle id="type1_81" type="type1" route="nw" depart="122.08234158537722" />
<vehicle id="type1_82" type="type1" route="en" depart="122.93640368852098" />
<vehicle id="type1_83" type="type1" route="ns" depart="125.84664579307533" />
<vehicle id="type1_84" type="type1" route="es" depart="126.92093391710142" />
<vehicle id="type1_85" type="type1" route="sn" depart="128.5946436753491" />
<vehicle id="type1_86" type="type1" route="ws" depart="133.41890126428618" />
<vehicle id="type1_87" type="type1" route="ws" depart="133.54108331667686" />
<vehicle id="type1_88" type="type1" route="we" depart="134.83084822674638" />
<vehicle id="type1_89" type="type1" route="en" depart="135.0257175534936" />
<vehicle id="type1_90" type="type1" route="ew" depart="135.50611573021956" />
<vehicle id="type1_91" type="type1" route="we" depart="135.63635688089704" />
<vehicle id="type1_92" type="type1" route="se" depart="137.0538899259908" />
<vehicle id="type1_93" type="type1" route="se" depart="139.91685009535706" />
<vehicle id="type1_94" type="type1" route="we" depart="142.30293780551628" />
<vehicle id="type1_95" type="type1" route="se" depart="142.58651868275908" />
<vehicle id="type1_96" type="type1" route="ne" depart="143.84961149436987" />
<vehicle id="type1_97" type="type1" route="ew" depart="146.11907565626825" />
<vehicle id="type1_98" type="type1" route="en" depart="149.9985937947015" />
<vehicle id="type1_99" type="type1" route="es" depart="152.63260021952217" />
<vehicle id="type1_100" type="type1" route="es" depart="153.5536889385678" />
<vehicle id="type1_101" type="type1" route="sw" depart="154.16536295591388" />
<vehicle id="type1_102" type="type1" route="se" depart="154.80697694590287" />
<vehicle id="type1_103" type="type1" route="ew" depart="158.43713827199403" />
<vehicle id="type1_104" type="type1" route="es" depart="158.72901751035718" />
<vehicle id="type1_105" type="type1" route="sn" depart="159.08420205530902" />
<vehicle id="type1_106" type="type1" route="wn" depart="160.18419504806485" />
<vehicle id="type1_107" type="type1" route="ws" depart="161.33890824210513" />
<vehicle id="type1_108" type="type1" route="ew" depart="161.55352466459902" />
<vehicle id="type1_109" type="type1" route="se" depart="161.77696411929773" />
<vehicle id="emv_9" type="rescue" route="nw" depart="163.13423454999233" />
<vehicle id="type1_110" type="type1" route="se" depart="164.39793355762458" />
<vehicle id="type1_111" type="type1" route="ns" depart="165.1273509018195" />
<vehicle id="type1_112" type="type1" route="ws" depart="166.07694791356332" />
<vehicle id="type1_113" type="type1" route="ne" depart="167.40422058601496" />
<vehicle id="type1_114" type="type1" route="we" depart="168.63334418311968" />
<vehicle id="type1_115" type="type1" route="ws" depart="168.95363363919083" />
<vehicle id="type1_116" type="type1" route="ew" depart="169.3904041756274" />
<vehicle id="type1_117" type="type1" route="nw" depart="170.62406129447288" />
<vehicle id="type1_118" type="type1" route="es" depart="171.21593101125205" />
<vehicle id="type1_119" type="type1" route="ne" depart="172.89795316178618" />
<vehicle id="type1_120" type="type1" route="ws" depart="173.31496404346632" />
<vehicle id="type1_121" type="type1" route="se" depart="178.80323714098637" />
<vehicle id="emv_10" type="rescue" route="wn" depart="182.39199566741246" />
<vehicle id="type1_122" type="type1" route="wn" depart="184.96072847275386" />
<vehicle id="type1_123" type="type1" route="en" depart="185.62248381924752" />
<vehicle id="type1_124" type="type1" route="wn" depart="186.20821932549498" />
<vehicle id="type1_125" type="type1" route="wn" depart="187.47202651861232" />
<vehicle id="type1_126" type="type1" route="ew" depart="190.11469252891453" />
<vehicle id="type1_127" type="type1" route="we" depart="191.17709038214267" />
<vehicle id="type1_128" type="type1" route="ne" depart="191.88362480425536" />
<vehicle id="type1_129" type="type1" route="ew" depart="193.03281164431965" />
<vehicle id="type1_130" type="type1" route="se" depart="193.639980489826" />
<vehicle id="type1_131" type="type1" route="we" depart="193.654731897162" />
<vehicle id="type1_132" type="type1" route="nw" depart="196.4979093268701" />
<vehicle id="emv_11" type="rescue" route="ew" depart="196.57211035309706" />
<vehicle id="type1_133" type="type1" route="ne" depart="196.64257749936604" />
<vehicle id="type1_134" type="type1" route="sw" depart="196.692924858016" />
<vehicle id="type1_135" type="type1" route="ew" depart="198.4133993773993" />
<vehicle id="type1_136" type="type1" route="sn" depart="198.710138730565" />
<vehicle id="type1_137" type="type1" route="ew" depart="198.89489787374316" />
<vehicle id="type1_138" type="type1" route="sn" depart="198.95603042831436" />
<vehicle id="type1_139" type="type1" route="wn" depart="199.3751703672314" />
<vehicle id="emv_12" type="rescue" route="sn" depart="199.5692487414596" />
<vehicle id="type1_140" type="type1" route="nw" depart="199.6662295557199" />
<vehicle id="type1_141" type="type1" route="se" depart="203.96836365875814" />
<vehicle id="emv_13" type="rescue" route="ew" depart="204.6631687230269" />
<vehicle id="type1_142" type="type1" route="sw" depart="205.19462097806266" />
<vehicle id="type1_143" type="type1" route="en" depart="207.2864135916314" />
<vehicle id="type1_144" type="type1" route="we" depart="209.96877969236675" />
<vehicle id="type1_145" type="type1" route="nw" depart="210.87085625609" />
<vehicle id="type1_146" type="type1" route="en" depart="210.87833112770326" />
<vehicle id="type1_147" type="type1" route="ew" depart="216.29668498244473" />
<vehicle id="type1_148" type="type1" route="ne" depart="217.02199531374308" />
<vehicle id="type1_149" type="type1" route="nw" depart="217.60588952124417" />
<vehicle id="type1_150" type="type1" route="en" depart="218.87313752172156" />
<vehicle id="type1_151" type="type1" route="nw" depart="219.34601759624087" />
<vehicle id="type1_152" type="type1" route="wn" depart="219.53782454594113" />
<vehicle id="type1_153" type="type1" route="nw" depart="219.58897230206702" />
<vehicle id="type1_154" type="type1" route="ne" depart="219.76211963900727" />
<vehicle id="type1_155" type="type1" route="se" depart="220.57478292468824" />
<vehicle id="type1_156" type="type1" route="en" depart="220.77573731353365" />
<vehicle id="type1_157" type="type1" route="nw" depart="222.78621782323862" />
<vehicle id="type1_158" type="type1" route="sn" depart="227.6390954435218" />
<vehicle id="type1_159" type="type1" route="ew" depart="227.9264131168851" />
<vehicle id="type1_160" type="type1" route="nw" depart="228.67329959786122" />
<vehicle id="type1_161" type="type1" route="nw" depart="231.79938814590074" />
<vehicle id="type1_162" type="type1" route="se" depart="231.91181733607226" />
<vehicle id="type1_163" type="type1" route="we" depart="232.3142311999097" />
<vehicle id="emv_14" type="rescue" route="se" depart="232.50824338775834" />
<vehicle id="emv_15" type="rescue" route="se" depart="232.76264037609732" />
<vehicle id="type1_164" type="type1" route="ns" depart="233.05421870988687" />
<vehicle id="type1_165" type="type1" route="se" depart="233.3359340231437" />
<vehicle id="type1_166" type="type1" route="es" depart="234.8387766048114" />
<vehicle id="type1_167" type="type1" route="sw" depart="235.0362769992082" />
<vehicle id="type1_168" type="type1" route="ns" depart="236.13146029434833" />
<vehicle id="type1_169" type="type1" route="sw" depart="236.57897154571887" />
<vehicle id="type1_170" type="type1" route="wn" depart="239.52111790107574" />
<vehicle id="type1_171" type="type1" route="es" depart="239.92158593981273" />
<vehicle id="emv_16" type="rescue" route="nw" depart="241.2180811903443" />
<vehicle id="type1_172" type="type1" route="se" depart="241.7479155395773" />
<vehicle id="type1_173" type="type1" route="ns" depart="242.57993132632777" />
<vehicle id="type1_174" type="type1" route="sn" depart="243.04770312583048" />
<vehicle id="type1_175" type="type1" route="se" depart="244.1718151466404" />
<vehicle id="type1_176" type="type1" route="es" depart="244.3133351383425" />
<vehicle id="type1_177" type="type1" route="en" depart="244.82443894379935" />
<vehicle id="type1_178" type="type1" route="sw" depart="247.04507199791172" />
<vehicle id="type1_179" type="type1" route="ns" depart="247.85302519450406" />
<vehicle id="type1_180" type="type1" route="ne" depart="248.14779599681157" />
<vehicle id="type1_181" type="type1" route="se" depart="249.70309873031812" />
<vehicle id="type1_182" type="type1" route="nw" depart="251.07066861939379" />
<vehicle id="type1_183" type="type1" route="ew" depart="251.2543005158721" />
<vehicle id="emv_17" type="rescue" route="sn" depart="253.10433101304912" />
<vehicle id="type1_184" type="type1" route="nw" depart="254.16957761017125" />
<vehicle id="type1_185" type="type1" route="nw" depart="254.78573168919132" />
<vehicle id="type1_186" type="type1" route="en" depart="256.5824283474782" />
<vehicle id="type1_187" type="type1" route="en" depart="257.60681785504187" />
<vehicle id="type1_188" type="type1" route="sw" depart="258.493345166012" />
<vehicle id="type1_189" type="type1" route="se" depart="259.49515095214855" />
<vehicle id="type1_190" type="type1" route="ne" depart="259.6881559727258" />
<vehicle id="type1_191" type="type1" route="ns" depart="270.5402441061599" />
<vehicle id="type1_192" type="type1" route="ne" depart="271.8527819779395" />
<vehicle id="type1_193" type="type1" route="nw" depart="273.2611913361924" />
<vehicle id="type1_194" type="type1" route="se" depart="276.59831692880755" />
<vehicle id="type1_195" type="type1" route="we" depart="278.62953060467476" />
<vehicle id="type1_196" type="type1" route="we" depart="278.6374243274775" />
<vehicle id="type1_197" type="type1" route="se" depart="279.93843482715994" />
<vehicle id="type1_198" type="type1" route="sw" depart="280.2504813452341" />
<vehicle id="type1_199" type="type1" route="ws" depart="280.28572238208966" />
<vehicle id="type1_200" type="type1" route="sn" depart="280.5069398006481" />
<vehicle id="type1_201" type="type1" route="nw" depart="283.4237524027861" />
<vehicle id="type1_202" type="type1" route="we" depart="287.10183634512293" />
<vehicle id="type1_203" type="type1" route="ws" depart="288.0837003553959" />
<vehicle id="type1_204" type="type1" route="we" depart="288.6021944200915" />
<vehicle id="type1_205" type="type1" route="es" depart="288.9092769578238" />
<vehicle id="type1_206" type="type1" route="ns" depart="290.209713124042" />
<vehicle id="type1_207" type="type1" route="nw" depart="293.2591706153008" />
<vehicle id="type1_208" type="type1" route="sw" depart="293.5977232099721" />
<vehicle id="type1_209" type="type1" route="ns" depart="294.4409385311151" />
<vehicle id="type1_210" type="type1" route="es" depart="294.4617951863778" />
<vehicle id="type1_211" type="type1" route="ew" depart="295.1308199130242" />
<vehicle id="type1_212" type="type1" route="wn" depart="296.72194355021537" />
<vehicle id="type1_213" type="type1" route="sw" depart="297.02283877146505" />
<vehicle id="type1_214" type="type1" route="sw" depart="305.63304683069697" />
<vehicle id="type1_215" type="type1" route="ne" depart="308.70906339126844" />
<vehicle id="type1_216" type="type1" route="wn" depart="308.9076752257008" />
<vehicle id="type1_217" type="type1" route="en" depart="311.05944709689896" />
<vehicle id="type1_218" type="type1" route="en" depart="311.35108274046394" />
<vehicle id="type1_219" type="type1" route="ws" depart="312.14596733646283" />
<vehicle id="type1_220" type="type1" route="nw" depart="313.0139838679611" />
<vehicle id="type1_221" type="type1" route="ew" depart="314.66117908650244" />
<vehicle id="type1_222" type="type1" route="ws" depart="315.9239343523829" />
<vehicle id="type1_223" type="type1" route="es" depart="316.42204105776574" />
<vehicle id="type1_224" type="type1" route="sn" depart="317.00031036831433" />
<vehicle id="type1_225" type="type1" route="we" depart="317.05706655971323" />
<vehicle id="type1_226" type="type1" route="se" depart="317.57303161506974" />
<vehicle id="type1_227" type="type1" route="sn" depart="318.5241237734431" />
<vehicle id="type1_228" type="type1" route="ws" depart="319.1343539668423" />
<vehicle id="type1_229" type="type1" route="nw" depart="322.3705370112582" />
<vehicle id="type1_230" type="type1" route="we" depart="328.86556376479507" />
<vehicle id="type1_231" type="type1" route="ne" depart="329.6690129197781" />
<vehicle id="type1_232" type="type1" route="se" depart="330.67101376108604" />
<vehicle id="type1_233" type="type1" route="ws" depart="331.26662452505155" />
<vehicle id="type1_234" type="type1" route="en" depart="333.35265545266583" />
<vehicle id="type1_235" type="type1" route="ew" depart="334.02271474068823" />
<vehicle id="type1_236" type="type1" route="wn" depart="335.0310449127275" />
<vehicle id="type1_237" type="type1" route="sw" depart="335.44440828516775" />
<vehicle id="emv_18" type="rescue" route="we" depart="335.58125655877797" />
<vehicle id="type1_238" type="type1" route="ws" depart="338.168107133481" />
<vehicle id="type1_239" type="type1" route="nw" depart="338.66547003705824" />
<vehicle id="type1_240" type="type1" route="ne" depart="339.35926538078684" />
<vehicle id="type1_241" type="type1" route="sw" depart="341.79526416302696" />
<vehicle id="type1_242" type="type1" route="se" depart="342.9519745040771" />
<vehicle id="type1_243" type="type1" route="ns" depart="344.4977959623283" />
<vehicle id="type1_244" type="type1" route="ws" depart="346.535385267269" />
<vehicle id="emv_19" type="rescue" route="ne" depart="347.40980824997604" />
<vehicle id="type1_245" type="type1" route="ew" depart="348.17397656103583" />
<vehicle id="type1_246" type="type1" route="we" depart="349.572253686051" />
<vehicle id="type1_247" type="type1" route="wn" depart="352.6691972514787" />
<vehicle id="type1_248" type="type1" route="ws" depart="354.13912183662086" />
<vehicle id="type1_249" type="type1" route="ns" depart="355.6205725574278" />
<vehicle id="type1_250" type="type1" route="ew" depart="356.63001575091886" />
<vehicle id="type1_251" type="type1" route="se" depart="356.91328717228043" />
<vehicle id="type1_252" type="type1" route="ws" depart="358.2035717531522" />
<vehicle id="type1_253" type="type1" route="we" depart="358.74013139323597" />
<vehicle id="type1_254" type="type1" route="ws" depart="360.51954241237166" />
<vehicle id="emv_20" type="rescue" route="we" depart="361.3810039609857" />
<vehicle id="type1_255" type="type1" route="en" depart="362.4743586847329" />
<vehicle id="type1_256" type="type1" route="se" depart="362.7154640293468" />
<vehicle id="type1_257" type="type1" route="sw" depart="363.19980597985125" />
<vehicle id="type1_258" type="type1" route="we" depart="364.4977241651758" />
<vehicle id="type1_259" type="type1" route="we" depart="365.53275701993226" />
<vehicle id="emv_21" type="rescue" route="en" depart="366.47004964957995" />
<vehicle id="type1_260" type="type1" route="sw" depart="370.12031841683705" />
<vehicle id="type1_261" type="type1" route="nw" depart="373.75087179971393" />
<vehicle id="type1_262" type="type1" route="wn" depart="377.8841394842099" />
<vehicle id="type1_263" type="type1" route="ns" depart="378.33514680806746" />
<vehicle id="type1_264" type="type1" route="sn" depart="380.50185581734695" />
<vehicle id="type1_265" type="type1" route="en" depart="380.6906567122369" />
<vehicle id="type1_266" type="type1" route="sn" depart="381.06169480173554" />
<vehicle id="type1_267" type="type1" route="nw" depart="381.1276908536664" />
<vehicle id="type1_268" type="type1" route="we" depart="381.3128518425559" />
<vehicle id="type1_269" type="type1" route="ew" depart="381.6409352373695" />
<vehicle id="type1_270" type="type1" route="es" depart="384.1287467050537" />
<vehicle id="type1_271" type="type1" route="sn" depart="384.9971697069914" />
<vehicle id="type1_272" type="type1" route="ew" depart="385.08391921108455" />
<vehicle id="type1_273" type="type1" route="we" depart="385.7740237968034" />
<vehicle id="type1_274" type="type1" route="ws" depart="386.06469867900705" />
<vehicle id="type1_275" type="type1" route="ne" depart="387.0852438942184" />
<vehicle id="type1_276" type="type1" route="es" depart="389.00421097132767" />
<vehicle id="type1_277" type="type1" route="ns" depart="389.575106922457" />
<vehicle id="type1_278" type="type1" route="se" depart="389.5968781516242" />
<vehicle id="type1_279" type="type1" route="ns" depart="390.172774193851" />
</routes>