<routes>
            <vType id="type1" accel="0.8" decel="4.5" sigma="0.5" length="5" maxSpeed="70"/>
            <route id="ne" edges="ni eo"/>
            <route id="ns" edges="ni so"/>
            <route id="nw" edges="ni wo"/>
            <route id="en" edges="ei no"/>
            <route id="es" edges="ei so"/>
            <route id="ew" edges="ei wo"/>
            <route id="sn" edges="si no"/>
            <route id="se" edges="si eo"/>
            <route id="sw" edges="si wo"/>
            <route id="wn" edges="wi no"/>
            <route id="we" edges="wi eo"/>
            <route id="ws" edges="wi so"/>
            <route id="nn" edges="ni no"/>
            <route id="ss" edges="si so"/>
            <route id="ee" edges="ei eo"/>
            <route id="ww" edges="wi wo"/>
        <vehicle id="ss_0" type="type1" route="ss" depart="1.006759701194607" />
<vehicle id="ne_1" type="type1" route="ne" depart="2.47896523180806" />
<vehicle id="ww_2" type="type1" route="ww" depart="3.1430232283443233" />
<vehicle id="ew_3" type="type1" route="ew" depart="3.610839664458643" />
<vehicle id="ww_4" type="type1" route="ww" depart="4.073390213799527" />
<vehicle id="sn_5" type="type1" route="sn" depart="4.083502945391592" />
<vehicle id="ws_6" type="type1" route="ws" depart="4.503392976370699" />
<vehicle id="es_7" type="type1" route="es" depart="4.74567663673949" />
<vehicle id="nn_8" type="type1" route="nn" depart="5.99793408954714" />
<vehicle id="sw_9" type="type1" route="sw" depart="9.100276261329643" />
<vehicle id="wn_10" type="type1" route="wn" depart="9.453826257820614" />
<vehicle id="es_11" type="type1" route="es" depart="9.699169961265683" />
<vehicle id="sn_12" type="type1" route="sn" depart="10.602097787519146" />
<vehicle id="nn_13" type="type1" route="nn" depart="12.958263030303101" />
<vehicle id="ne_14" type="type1" route="ne" depart="14.362719779728836" />
<vehicle id="se_15" type="type1" route="se" depart="14.842300781709849" />
<vehicle id="wn_16" type="type1" route="wn" depart="15.362284396038593" />
<vehicle id="sn_17" type="type1" route="sn" depart="15.605938899441675" />
<vehicle id="ee_18" type="type1" route="ee" depart="17.403759793384506" />
<vehicle id="nw_19" type="type1" route="nw" depart="18.65320372217805" />
<vehicle id="we_20" type="type1" route="we" depart="19.02199667911797" />
<vehicle id="ew_21" type="type1" route="ew" depart="20.093599518806123" />
<vehicle id="ss_22" type="type1" route="ss" depart="22.227696864246518" />
<vehicle id="ns_23" type="type1" route="ns" depart="23.44523462756967" />
<vehicle id="nw_24" type="type1" route="nw" depart="24.37590031427787" />
<vehicle id="nw_25" type="type1" route="nw" depart="24.55527550535803" />
<vehicle id="ws_26" type="type1" route="ws" depart="24.965917819326574" />
<vehicle id="es_27" type="type1" route="es" depart="24.977942459899175" />
<vehicle id="en_28" type="type1" route="en" depart="25.617574171056408" />
<vehicle id="se_29" type="type1" route="se" depart="25.89745878091482" />
<vehicle id="ss_30" type="type1" route="ss" depart="27.585135856926126" />
<vehicle id="ee_31" type="type1" route="ee" depart="28.629243508510992" />
<vehicle id="sw_32" type="type1" route="sw" depart="28.931225741933687" />
<vehicle id="ew_33" type="type1" route="ew" depart="29.461827904197676" />
<vehicle id="sw_34" type="type1" route="sw" depart="31.416794293012536" />
<vehicle id="ew_35" type="type1" route="ew" depart="31.92117031579476" />
<vehicle id="ew_36" type="type1" route="ew" depart="31.932075185319796" />
<vehicle id="ww_37" type="type1" route="ww" depart="35.52740200417293" />
<vehicle id="we_38" type="type1" route="we" depart="35.679264741927106" />
<vehicle id="ne_39" type="type1" route="ne" depart="35.91480125210722" />
<vehicle id="ns_40" type="type1" route="ns" depart="36.32404378528546" />
<vehicle id="we_41" type="type1" route="we" depart="36.34754173595541" />
<vehicle id="sw_42" type="type1" route="sw" depart="37.58211563776266" />
<vehicle id="ew_43" type="type1" route="ew" depart="38.100147403318715" />
<vehicle id="ww_44" type="type1" route="ww" depart="38.824088331920876" />
<vehicle id="sn_45" type="type1" route="sn" depart="39.6161902217584" />
<vehicle id="sw_46" type="type1" route="sw" depart="41.1834733785488" />
<vehicle id="ww_47" type="type1" route="ww" depart="42.21375878465256" />
<vehicle id="ww_48" type="type1" route="ww" depart="42.553550692637" />
<vehicle id="nn_49" type="type1" route="nn" depart="43.05341710654406" />
<vehicle id="ws_50" type="type1" route="ws" depart="43.84117664069368" />
<vehicle id="ww_51" type="type1" route="ww" depart="44.12102220718236" />
<vehicle id="ee_52" type="type1" route="ee" depart="44.62092265132079" />
<vehicle id="ss_53" type="type1" route="ss" depart="45.30888332767501" />
<vehicle id="ne_54" type="type1" route="ne" depart="45.9988056957335" />
<vehicle id="nw_55" type="type1" route="nw" depart="46.57725093750534" />
<vehicle id="nw_56" type="type1" route="nw" depart="47.74631305680009" />
<vehicle id="ee_57" type="type1" route="ee" depart="50.13954399766789" />
<vehicle id="ww_58" type="type1" route="ww" depart="50.44759673801741" />
<vehicle id="ss_59" type="type1" route="ss" depart="50.47293610563274" />
<vehicle id="ee_60" type="type1" route="ee" depart="51.29394535564549" />
<vehicle id="sw_61" type="type1" route="sw" depart="52.370890893664374" />
<vehicle id="ee_62" type="type1" route="ee" depart="55.24792671633803" />
<vehicle id="es_63" type="type1" route="es" depart="56.976616046910294" />
<vehicle id="we_64" type="type1" route="we" depart="58.39157954967957" />
<vehicle id="se_65" type="type1" route="se" depart="58.96119185587351" />
<vehicle id="ww_66" type="type1" route="ww" depart="59.81050042378889" />
<vehicle id="en_67" type="type1" route="en" depart="61.34424126277016" />
<vehicle id="ss_68" type="type1" route="ss" depart="61.78245472355662" />
<vehicle id="sn_69" type="type1" route="sn" depart="63.090075859066715" />
<vehicle id="nw_70" type="type1" route="nw" depart="63.0901776377938" />
<vehicle id="en_71" type="type1" route="en" depart="63.31546279272706" />
<vehicle id="wn_72" type="type1" route="wn" depart="63.807527075734264" />
<vehicle id="ww_73" type="type1" route="ww" depart="65.09675186300385" />
<vehicle id="nn_74" type="type1" route="nn" depart="66.98611867266894" />
<vehicle id="se_75" type="type1" route="se" depart="67.22412180719208" />
<vehicle id="ew_76" type="type1" route="ew" depart="67.52971623670338" />
<vehicle id="se_77" type="type1" route="se" depart="67.93411668649856" />
<vehicle id="en_78" type="type1" route="en" depart="68.01913828347338" />
<vehicle id="wn_79" type="type1" route="wn" depart="68.54316112517832" />
<vehicle id="ee_80" type="type1" route="ee" depart="69.31197570358604" />
<vehicle id="ss_81" type="type1" route="ss" depart="71.41540963807145" />
<vehicle id="se_82" type="type1" route="se" depart="72.72667625319203" />
<vehicle id="ws_83" type="type1" route="ws" depart="73.39117207908335" />
<vehicle id="ne_84" type="type1" route="ne" depart="73.53678749263128" />
<vehicle id="ss_85" type="type1" route="ss" depart="74.6313074672106" />
<vehicle id="se_86" type="type1" route="se" depart="75.54511707746819" />
<vehicle id="ss_87" type="type1" route="ss" depart="75.87482048510124" />
<vehicle id="ns_88" type="type1" route="ns" depart="77.13754975966269" />
<vehicle id="ws_89" type="type1" route="ws" depart="78.43302909845958" />
<vehicle id="se_90" type="type1" route="se" depart="80.1264937237704" />
<vehicle id="wn_91" type="type1" route="wn" depart="80.3645931834771" />
<vehicle id="wn_92" type="type1" route="wn" depart="82.40478374826267" />
<vehicle id="sw_93" type="type1" route="sw" depart="83.15038496793747" />
<vehicle id="we_94" type="type1" route="we" depart="83.55887119519099" />
<vehicle id="sw_95" type="type1" route="sw" depart="85.87233549815863" />
<vehicle id="ee_96" type="type1" route="ee" depart="85.96646446304568" />
<vehicle id="ww_97" type="type1" route="ww" depart="86.42872128075574" />
<vehicle id="ws_98" type="type1" route="ws" depart="87.08746129752448" />
<vehicle id="nn_99" type="type1" route="nn" depart="87.856440539872" />
<vehicle id="ew_100" type="type1" route="ew" depart="88.15210626934292" />
<vehicle id="ss_101" type="type1" route="ss" depart="88.19073383215934" />
<vehicle id="nw_102" type="type1" route="nw" depart="88.1981694015689" />
<vehicle id="wn_103" type="type1" route="wn" depart="88.78516086308484" />
<vehicle id="we_104" type="type1" route="we" depart="89.4724730786651" />
<vehicle id="nw_105" type="type1" route="nw" depart="90.04024587621689" />
<vehicle id="ws_106" type="type1" route="ws" depart="90.0590043236796" />
<vehicle id="ew_107" type="type1" route="ew" depart="91.2725979699611" />
<vehicle id="wn_108" type="type1" route="wn" depart="91.42006122287131" />
<vehicle id="ns_109" type="type1" route="ns" depart="91.85810637424328" />
<vehicle id="nw_110" type="type1" route="nw" depart="92.9057010650235" />
<vehicle id="se_111" type="type1" route="se" depart="93.14847002693324" />
<vehicle id="ee_112" type="type1" route="ee" depart="94.14297587745959" />
<vehicle id="ne_113" type="type1" route="ne" depart="95.57652196172455" />
<vehicle id="we_114" type="type1" route="we" depart="96.36502367575606" />
<vehicle id="se_115" type="type1" route="se" depart="98.22942069087492" />
<vehicle id="we_116" type="type1" route="we" depart="98.3185053732603" />
<vehicle id="ns_117" type="type1" route="ns" depart="98.86599297666382" />
<vehicle id="ws_118" type="type1" route="ws" depart="99.1283206392986" />
<vehicle id="nn_119" type="type1" route="nn" depart="99.95284339447963" />
<vehicle id="ew_120" type="type1" route="ew" depart="100.94676075611568" />
<vehicle id="en_121" type="type1" route="en" depart="101.48481371510766" />
<vehicle id="ws_122" type="type1" route="ws" depart="102.30867276243904" />
<vehicle id="ne_123" type="type1" route="ne" depart="103.20888446686786" />
<vehicle id="ws_124" type="type1" route="ws" depart="104.4295763241146" />
<vehicle id="ee_125" type="type1" route="ee" depart="104.93578771375223" />
<vehicle id="ws_126" type="type1" route="ws" depart="106.78072444733951" />
<vehicle id="ee_127" type="type1" route="ee" depart="107.13059043166635" />
<vehicle id="ee_128" type="type1" route="ee" depart="107.7078492885421" />
<vehicle id="ew_129" type="type1" route="ew" depart="108.0284810738616" />
<vehicle id="ss_130" type="type1" route="ss" depart="108.09144712657366" />
<vehicle id="we_131" type="type1" route="we" depart="108.1842886207158" />
<vehicle id="ee_132" type="type1" route="ee" depart="109.13708490758259" />
<vehicle id="en_133" type="type1" route="en" depart="109.80001759240987" />
<vehicle id="es_134" type="type1" route="es" depart="110.32463882902663" />
<vehicle id="ew_135" type="type1" route="ew" depart="111.35399941638958" />
<vehicle id="se_136" type="type1" route="se" depart="111.53581685229837" />
<vehicle id="ws_137" type="type1" route="ws" depart="112.70578485785477" />
<vehicle id="ns_138" type="type1" route="ns" depart="114.58531082914718" />
<vehicle id="ew_139" type="type1" route="ew" depart="114.94348105045178" />
<vehicle id="sn_140" type="type1" route="sn" depart="115.1791580440914" />
<vehicle id="ew_141" type="type1" route="ew" depart="117.20789855512466" />
<vehicle id="ws_142" type="type1" route="ws" depart="119.06743763809203" />
<vehicle id="wn_143" type="type1" route="wn" depart="119.51191992416466" />
<vehicle id="ns_144" type="type1" route="ns" depart="119.57854466053703" />
<vehicle id="ss_145" type="type1" route="ss" depart="119.650729780208" />
<vehicle id="se_146" type="type1" route="se" depart="119.76975983881664" />
<vehicle id="ew_147" type="type1" route="ew" depart="120.06941596774791" />
<vehicle id="ee_148" type="type1" route="ee" depart="120.25915492155855" />
<vehicle id="we_149" type="type1" route="we" depart="121.08784530839704" />
<vehicle id="ew_150" type="type1" route="ew" depart="122.22541249998122" />
<vehicle id="ew_151" type="type1" route="ew" depart="122.30778609263163" />
<vehicle id="ss_152" type="type1" route="ss" depart="122.65798786750398" />
<vehicle id="nn_153" type="type1" route="nn" depart="123.24071745493548" />
<vehicle id="nn_154" type="type1" route="nn" depart="123.72268791439585" />
<vehicle id="en_155" type="type1" route="en" depart="123.84886791977328" />
<vehicle id="ss_156" type="type1" route="ss" depart="125.24518631521386" />
<vehicle id="wn_157" type="type1" route="wn" depart="125.70073260592814" />
<vehicle id="en_158" type="type1" route="en" depart="126.68183213215288" />
<vehicle id="ww_159" type="type1" route="ww" depart="126.98299222869039" />
<vehicle id="wn_160" type="type1" route="wn" depart="127.12806318674065" />
<vehicle id="ew_161" type="type1" route="ew" depart="128.05258354022413" />
<vehicle id="nn_162" type="type1" route="nn" depart="128.08812399901075" />
<vehicle id="en_163" type="type1" route="en" depart="128.3652850263484" />
<vehicle id="ww_164" type="type1" route="ww" depart="128.8926865676098" />
<vehicle id="nn_165" type="type1" route="nn" depart="129.31213277580704" />
<vehicle id="wn_166" type="type1" route="wn" depart="129.84626352106812" />
<vehicle id="se_167" type="type1" route="se" depart="130.5096305975629" />
<vehicle id="ne_168" type="type1" route="ne" depart="130.64250729493267" />
<vehicle id="ns_169" type="type1" route="ns" depart="131.90248283528766" />
<vehicle id="ss_170" type="type1" route="ss" depart="132.10677300194521" />
<vehicle id="ew_171" type="type1" route="ew" depart="132.83083953142975" />
<vehicle id="ws_172" type="type1" route="ws" depart="132.84327878108923" />
<vehicle id="ww_173" type="type1" route="ww" depart="134.70117781062382" />
<vehicle id="ew_174" type="type1" route="ew" depart="134.71327557402515" />
<vehicle id="es_175" type="type1" route="es" depart="134.9417983786682" />
<vehicle id="se_176" type="type1" route="se" depart="135.00338437248098" />
<vehicle id="sn_177" type="type1" route="sn" depart="135.48938330760905" />
<vehicle id="ss_178" type="type1" route="ss" depart="136.03691694417077" />
<vehicle id="ne_179" type="type1" route="ne" depart="136.06083865115116" />
<vehicle id="en_180" type="type1" route="en" depart="136.15395543495592" />
<vehicle id="ns_181" type="type1" route="ns" depart="138.04440762535728" />
<vehicle id="ew_182" type="type1" route="ew" depart="138.1236715661021" />
<vehicle id="nn_183" type="type1" route="nn" depart="138.68357888643916" />
<vehicle id="ss_184" type="type1" route="ss" depart="140.3319989411775" />
<vehicle id="ew_185" type="type1" route="ew" depart="142.55937895241863" />
<vehicle id="ns_186" type="type1" route="ns" depart="142.8642367995303" />
<vehicle id="ns_187" type="type1" route="ns" depart="143.62179372611337" />
<vehicle id="ee_188" type="type1" route="ee" depart="144.34273112382766" />
<vehicle id="ew_189" type="type1" route="ew" depart="144.9089474980024" />
<vehicle id="ee_190" type="type1" route="ee" depart="145.31387553454985" />
<vehicle id="ws_191" type="type1" route="ws" depart="145.3628885774722" />
<vehicle id="es_192" type="type1" route="es" depart="145.47157267454966" />
<vehicle id="ew_193" type="type1" route="ew" depart="145.88695595091937" />
<vehicle id="ne_194" type="type1" route="ne" depart="145.95847451538074" />
<vehicle id="nw_195" type="type1" route="nw" depart="146.00674794035646" />
<vehicle id="wn_196" type="type1" route="wn" depart="146.39911415272985" />
<vehicle id="en_197" type="type1" route="en" depart="146.5439042157015" />
<vehicle id="wn_198" type="type1" route="wn" depart="146.84189703043626" />
<vehicle id="we_199" type="type1" route="we" depart="148.46464500874214" />
<vehicle id="sw_200" type="type1" route="sw" depart="148.92584395377318" />
<vehicle id="ss_201" type="type1" route="ss" depart="150.19382148367433" />
<vehicle id="es_202" type="type1" route="es" depart="150.41980488576104" />
<vehicle id="ns_203" type="type1" route="ns" depart="151.50706240559475" />
<vehicle id="se_204" type="type1" route="se" depart="152.1000921919864" />
<vehicle id="se_205" type="type1" route="se" depart="152.552317371429" />
<vehicle id="ss_206" type="type1" route="ss" depart="153.52322096711487" />
<vehicle id="ne_207" type="type1" route="ne" depart="155.00652754576612" />
<vehicle id="en_208" type="type1" route="en" depart="155.19002922945552" />
<vehicle id="ee_209" type="type1" route="ee" depart="157.5893380302012" />
<vehicle id="ew_210" type="type1" route="ew" depart="158.91512096796203" />
<vehicle id="es_211" type="type1" route="es" depart="160.05667366531523" />
<vehicle id="es_212" type="type1" route="es" depart="160.44281115575427" />
<vehicle id="ew_213" type="type1" route="ew" depart="160.80872492133417" />
<vehicle id="ww_214" type="type1" route="ww" depart="162.0038217016525" />
<vehicle id="ww_215" type="type1" route="ww" depart="163.05881089324848" />
<vehicle id="ew_216" type="type1" route="ew" depart="163.6147644084635" />
<vehicle id="sw_217" type="type1" route="sw" depart="165.46106108808033" />
<vehicle id="ww_218" type="type1" route="ww" depart="166.14725339462" />
<vehicle id="nn_219" type="type1" route="nn" depart="166.22806462808012" />
<vehicle id="we_220" type="type1" route="we" depart="166.41937555342244" />
<vehicle id="we_221" type="type1" route="we" depart="166.61447653274732" />
<vehicle id="ee_222" type="type1" route="ee" depart="168.21490775347857" />
<vehicle id="we_223" type="type1" route="we" depart="168.87231826613956" />
<vehicle id="ns_224" type="type1" route="ns" depart="169.10902254113992" />
<vehicle id="nw_225" type="type1" route="nw" depart="169.39603727037107" />
<vehicle id="ns_226" type="type1" route="ns" depart="169.51528157452293" />
<vehicle id="ne_227" type="type1" route="ne" depart="169.83563428233543" />
<vehicle id="ss_228" type="type1" route="ss" depart="170.42147366421204" />
<vehicle id="ww_229" type="type1" route="ww" depart="171.45010122627733" />
<vehicle id="nw_230" type="type1" route="nw" depart="171.46731849030317" />
<vehicle id="ws_231" type="type1" route="ws" depart="171.96732660741483" />
<vehicle id="ss_232" type="type1" route="ss" depart="172.8399958315067" />
<vehicle id="es_233" type="type1" route="es" depart="173.63023509483486" />
<vehicle id="nn_234" type="type1" route="nn" depart="174.12103044982908" />
<vehicle id="se_235" type="type1" route="se" depart="174.4700979972694" />
<vehicle id="sn_236" type="type1" route="sn" depart="174.8761898250665" />
<vehicle id="nn_237" type="type1" route="nn" depart="175.1193935741062" />
<vehicle id="ww_238" type="type1" route="ww" depart="175.1685978179226" />
<vehicle id="nn_239" type="type1" route="nn" depart="177.07926467478413" />
<vehicle id="se_240" type="type1" route="se" depart="177.89680778877184" />
<vehicle id="es_241" type="type1" route="es" depart="177.934440669453" />
<vehicle id="es_242" type="type1" route="es" depart="178.6787265002089" />
<vehicle id="nn_243" type="type1" route="nn" depart="178.8574019059802" />
<vehicle id="se_244" type="type1" route="se" depart="178.9749812046036" />
<vehicle id="ee_245" type="type1" route="ee" depart="179.37539848165096" />
<vehicle id="ew_246" type="type1" route="ew" depart="180.0019575857364" />
<vehicle id="se_247" type="type1" route="se" depart="180.08199865350886" />
<vehicle id="wn_248" type="type1" route="wn" depart="183.37259071462768" />
<vehicle id="es_249" type="type1" route="es" depart="183.7457177432638" />
<vehicle id="ss_250" type="type1" route="ss" depart="184.04956155377573" />
<vehicle id="ne_251" type="type1" route="ne" depart="184.19034604284374" />
<vehicle id="wn_252" type="type1" route="wn" depart="184.7194404901506" />
<vehicle id="ns_253" type="type1" route="ns" depart="185.96213069051572" />
<vehicle id="wn_254" type="type1" route="wn" depart="186.70754162098123" />
<vehicle id="en_255" type="type1" route="en" depart="186.7427417954338" />
<vehicle id="ss_256" type="type1" route="ss" depart="186.95956705040967" />
<vehicle id="nw_257" type="type1" route="nw" depart="186.9862288848821" />
<vehicle id="ew_258" type="type1" route="ew" depart="187.2833602422072" />
<vehicle id="nw_259" type="type1" route="nw" depart="188.13708193424702" />
<vehicle id="nw_260" type="type1" route="nw" depart="188.15382915087878" />
<vehicle id="sw_261" type="type1" route="sw" depart="188.60848596566234" />
<vehicle id="nw_262" type="type1" route="nw" depart="189.07547667332037" />
<vehicle id="en_263" type="type1" route="en" depart="189.41829248917242" />
<vehicle id="ww_264" type="type1" route="ww" depart="190.30119400320876" />
<vehicle id="nn_265" type="type1" route="nn" depart="190.7594139594812" />
<vehicle id="ee_266" type="type1" route="ee" depart="191.17019558330338" />
<vehicle id="ww_267" type="type1" route="ww" depart="191.45913635795682" />
<vehicle id="wn_268" type="type1" route="wn" depart="193.44540872837106" />
<vehicle id="es_269" type="type1" route="es" depart="193.77344242362722" />
<vehicle id="sn_270" type="type1" route="sn" depart="193.9071962178651" />
<vehicle id="ee_271" type="type1" route="ee" depart="194.56646903571468" />
<vehicle id="ee_272" type="type1" route="ee" depart="194.69263126079335" />
<vehicle id="ne_273" type="type1" route="ne" depart="194.82506369894477" />
<vehicle id="ws_274" type="type1" route="ws" depart="196.76694546913942" />
<vehicle id="ee_275" type="type1" route="ee" depart="196.86669574762269" />
<vehicle id="sn_276" type="type1" route="sn" depart="198.3568582334831" />
<vehicle id="ew_277" type="type1" route="ew" depart="198.69709046067806" />
<vehicle id="ne_278" type="type1" route="ne" depart="199.55931061865624" />
<vehicle id="ns_279" type="type1" route="ns" depart="199.9378516054863" />
<vehicle id="ss_280" type="type1" route="ss" depart="200.52204211128566" />
<vehicle id="wn_281" type="type1" route="wn" depart="203.85753572038305" />
<vehicle id="se_282" type="type1" route="se" depart="205.9926639909767" />
<vehicle id="ee_283" type="type1" route="ee" depart="206.96120333041338" />
<vehicle id="sn_284" type="type1" route="sn" depart="207.52449663632407" />
<vehicle id="es_285" type="type1" route="es" depart="208.76685826351755" />
<vehicle id="ee_286" type="type1" route="ee" depart="208.7982493348894" />
<vehicle id="ne_287" type="type1" route="ne" depart="209.48182448244768" />
<vehicle id="ws_288" type="type1" route="ws" depart="210.82422493763377" />
<vehicle id="es_289" type="type1" route="es" depart="211.22656845691884" />
<vehicle id="es_290" type="type1" route="es" depart="211.22920114050189" />
<vehicle id="sn_291" type="type1" route="sn" depart="211.5194438668248" />
<vehicle id="ww_292" type="type1" route="ww" depart="215.16723140517013" />
<vehicle id="wn_293" type="type1" route="wn" depart="215.3304550232456" />
<vehicle id="ss_294" type="type1" route="ss" depart="215.37628786319826" />
<vehicle id="we_295" type="type1" route="we" depart="215.39978716696552" />
<vehicle id="wn_296" type="type1" route="wn" depart="216.16130725835916" />
<vehicle id="en_297" type="type1" route="en" depart="216.86790315677086" />
<vehicle id="ws_298" type="type1" route="ws" depart="217.9798058766753" />
<vehicle id="ss_299" type="type1" route="ss" depart="218.3360761892261" />
<vehicle id="nw_300" type="type1" route="nw" depart="219.27830772968562" />
<vehicle id="se_301" type="type1" route="se" depart="219.40624781775773" />
<vehicle id="we_302" type="type1" route="we" depart="219.69236296989234" />
<vehicle id="ne_303" type="type1" route="ne" depart="219.81163311885453" />
<vehicle id="ss_304" type="type1" route="ss" depart="223.80881359276583" />
<vehicle id="ns_305" type="type1" route="ns" depart="223.90613122833074" />
<vehicle id="ew_306" type="type1" route="ew" depart="224.32213574757006" />
<vehicle id="ww_307" type="type1" route="ww" depart="225.488417988888" />
<vehicle id="en_308" type="type1" route="en" depart="225.77647220916631" />
<vehicle id="se_309" type="type1" route="se" depart="226.08814196924405" />
<vehicle id="nw_310" type="type1" route="nw" depart="227.00123626449917" />
<vehicle id="ns_311" type="type1" route="ns" depart="227.0576243504943" />
<vehicle id="sw_312" type="type1" route="sw" depart="227.33273194988925" />
<vehicle id="nw_313" type="type1" route="nw" depart="227.39557161750847" />
<vehicle id="ew_314" type="type1" route="ew" depart="227.93064204313083" />
<vehicle id="nn_315" type="type1" route="nn" depart="229.4545628272003" />
<vehicle id="se_316" type="type1" route="se" depart="229.78293781236692" />
<vehicle id="sn_317" type="type1" route="sn" depart="231.93255490468067" />
<vehicle id="se_318" type="type1" route="se" depart="232.03837288110208" />
<vehicle id="ws_319" type="type1" route="ws" depart="232.84103689276054" />
<vehicle id="es_320" type="type1" route="es" depart="232.92738166024034" />
<vehicle id="se_321" type="type1" route="se" depart="233.46989126169962" />
<vehicle id="ns_322" type="type1" route="ns" depart="234.15947998183393" />
<vehicle id="ew_323" type="type1" route="ew" depart="234.74293549010648" />
<vehicle id="nn_324" type="type1" route="nn" depart="235.40653022891112" />
<vehicle id="ne_325" type="type1" route="ne" depart="235.4105678031521" />
<vehicle id="sn_326" type="type1" route="sn" depart="237.42426543815336" />
<vehicle id="we_327" type="type1" route="we" depart="237.70489337910976" />
<vehicle id="ww_328" type="type1" route="ww" depart="238.4452658856853" />
<vehicle id="ew_329" type="type1" route="ew" depart="238.5276320415993" />
<vehicle id="ww_330" type="type1" route="ww" depart="238.79914978753217" />
<vehicle id="nn_331" type="type1" route="nn" depart="239.30979720674821" />
<vehicle id="en_332" type="type1" route="en" depart="239.91108673571642" />
<vehicle id="nw_333" type="type1" route="nw" depart="241.0143033251706" />
<vehicle id="en_334" type="type1" route="en" depart="242.11774148190952" />
<vehicle id="sw_335" type="type1" route="sw" depart="242.15459381616125" />
<vehicle id="we_336" type="type1" route="we" depart="243.16329131101116" />
<vehicle id="ws_337" type="type1" route="ws" depart="243.8783141563126" />
<vehicle id="ws_338" type="type1" route="ws" depart="244.05487527099163" />
<vehicle id="es_339" type="type1" route="es" depart="245.10646620583788" />
<vehicle id="ne_340" type="type1" route="ne" depart="245.24121136923722" />
<vehicle id="ee_341" type="type1" route="ee" depart="245.42368162921932" />
<vehicle id="nn_342" type="type1" route="nn" depart="246.2843007942055" />
<vehicle id="ne_343" type="type1" route="ne" depart="247.25912350824407" />
<vehicle id="es_344" type="type1" route="es" depart="247.29849712679786" />
<vehicle id="ww_345" type="type1" route="ww" depart="248.0583119431713" />
<vehicle id="ew_346" type="type1" route="ew" depart="248.2405969968664" />
<vehicle id="sw_347" type="type1" route="sw" depart="248.256370822441" />
<vehicle id="ns_348" type="type1" route="ns" depart="248.71018024020253" />
<vehicle id="ns_349" type="type1" route="ns" depart="249.12235365443658" />
<vehicle id="ns_350" type="type1" route="ns" depart="249.5632735923528" />
<vehicle id="ss_351" type="type1" route="ss" depart="251.8025152662032" />
<vehicle id="wn_352" type="type1" route="wn" depart="252.3372409772212" />
<vehicle id="ws_353" type="type1" route="ws" depart="252.34918720646192" />
<vehicle id="es_354" type="type1" route="es" depart="252.6321422827116" />
<vehicle id="we_355" type="type1" route="we" depart="252.80309137487453" />
<vehicle id="sw_356" type="type1" route="sw" depart="253.5324636543244" />
<vehicle id="wn_357" type="type1" route="wn" depart="255.43581663505736" />
<vehicle id="en_358" type="type1" route="en" depart="255.72157550641634" />
<vehicle id="nn_359" type="type1" route="nn" depart="256.1642858621366" />
<vehicle id="ss_360" type="type1" route="ss" depart="256.56367303320064" />
<vehicle id="sw_361" type="type1" route="sw" depart="256.68349266378334" />
<vehicle id="ew_362" type="type1" route="ew" depart="256.9968715303627" />
<vehicle id="ee_363" type="type1" route="ee" depart="257.44066501606494" />
<vehicle id="ws_364" type="type1" route="ws" depart="257.6455346550124" />
<vehicle id="sw_365" type="type1" route="sw" depart="258.5160308047042" />
<vehicle id="se_366" type="type1" route="se" depart="258.8693212744365" />
<vehicle id="es_367" type="type1" route="es" depart="259.3890325916329" />
<vehicle id="ew_368" type="type1" route="ew" depart="259.5138020089907" />
<vehicle id="es_369" type="type1" route="es" depart="259.705235464024" />
<vehicle id="wn_370" type="type1" route="wn" depart="259.73166041335065" />
<vehicle id="ee_371" type="type1" route="ee" depart="259.95958448213884" />
<vehicle id="wn_372" type="type1" route="wn" depart="260.276785421515" />
<vehicle id="sw_373" type="type1" route="sw" depart="260.7896628093014" />
<vehicle id="ws_374" type="type1" route="ws" depart="262.75444658195215" />
<vehicle id="nw_375" type="type1" route="nw" depart="263.7788028744719" />
<vehicle id="sn_376" type="type1" route="sn" depart="265.61687872900023" />
<vehicle id="sn_377" type="type1" route="sn" depart="265.6715136225393" />
<vehicle id="sw_378" type="type1" route="sw" depart="266.48713129592613" />
<vehicle id="wn_379" type="type1" route="wn" depart="266.53556526774406" />
<vehicle id="ss_380" type="type1" route="ss" depart="268.9277510250793" />
<vehicle id="we_381" type="type1" route="we" depart="269.92689136610693" />
<vehicle id="ns_382" type="type1" route="ns" depart="270.13254831963786" />
<vehicle id="ww_383" type="type1" route="ww" depart="270.4631884793905" />
<vehicle id="ww_384" type="type1" route="ww" depart="272.1837848226818" />
<vehicle id="ws_385" type="type1" route="ws" depart="273.89332488405137" />
<vehicle id="ww_386" type="type1" route="ww" depart="274.37318596069133" />
<vehicle id="sn_387" type="type1" route="sn" depart="274.5903491715939" />