<routes>
            <vType id="type1" accel="0.8" decel="4.5" sigma="0.5" length="5" maxSpeed="70"/>
            <vType id="rescue" vClass="emergency" speedFactor="1.5" guiShape="emergency">
                <param key="has.bluelight.device" value="true"/>
            </vType>
            <route id="ne" edges="ni eo"/>
            <route id="ns" edges="ni so"/>
            <route id="nw" edges="ni wo"/>
            <route id="en" edges="ei no"/>
            <route id="es" edges="ei so"/>
            <route id="ew" edges="ei wo"/>
            <route id="sn" edges="si no"/>
            <route id="se" edges="si eo"/>
            <route id="sw" edges="si wo"/>
            <route id="wn" edges="wi no"/>
            <route id="we" edges="wi eo"/>
            <route id="ws" edges="wi so"/>
        <vehicle id="type1_1" type="type1" route="wn" depart="0.37867105684933977" />
<vehicle id="type1_2" type="type1" route="sn" depart="0.9779126672426196" />
<vehicle id="type1_3" type="type1" route="en" depart="1.3272829408995275" />
<vehicle id="type1_4" type="type1" route="sn" depart="2.216672278970435" />
<vehicle id="type1_5" type="type1" route="we" depart="2.3466783331526697" />
<vehicle id="type1_6" type="type1" route="ne" depart="3.0282099820117363" />
<vehicle id="type1_7" type="type1" route="ew" depart="3.921970007731691" />
<vehicle id="emv_1" type="rescue" route="ws" depart="11.27964175443988" />
<vehicle id="type1_8" type="type1" route="ne" depart="12.714889005313353" />
<vehicle id="type1_9" type="type1" route="nw" depart="14.088823425649482" />
<vehicle id="type1_10" type="type1" route="se" depart="15.294636139137152" />
<vehicle id="type1_11" type="type1" route="we" depart="15.537519580945848" />
<vehicle id="type1_12" type="type1" route="nw" depart="17.362123766005638" />
<vehicle id="type1_13" type="type1" route="we" depart="17.49014615504901" />
<vehicle id="type1_14" type="type1" route="sn" depart="18.561244322517116" />
<vehicle id="emv_2" type="rescue" route="en" depart="18.638076755591847" />
<vehicle id="type1_15" type="type1" route="wn" depart="19.221299803317393" />
<vehicle id="type1_16" type="type1" route="wn" depart="20.488887356684785" />
<vehicle id="type1_17" type="type1" route="nw" depart="22.353445429874707" />
<vehicle id="type1_18" type="type1" route="es" depart="22.55084929795007" />
<vehicle id="type1_19" type="type1" route="en" depart="22.91349606371434" />
<vehicle id="type1_20" type="type1" route="sw" depart="23.265368597171808" />
<vehicle id="type1_21" type="type1" route="sn" depart="25.352382408267097" />
<vehicle id="type1_22" type="type1" route="wn" depart="26.068318485810554" />
<vehicle id="type1_23" type="type1" route="sw" depart="27.287764201468647" />
<vehicle id="emv_3" type="rescue" route="en" depart="29.46485671446714" />
<vehicle id="type1_24" type="type1" route="en" depart="29.515939157815595" />
<vehicle id="type1_25" type="type1" route="sn" depart="31.13302151741717" />
<vehicle id="type1_26" type="type1" route="wn" depart="31.67503097407115" />
<vehicle id="type1_27" type="type1" route="sw" depart="32.921328254077835" />
<vehicle id="type1_28" type="type1" route="ns" depart="33.541159385290214" />
<vehicle id="type1_29" type="type1" route="wn" depart="34.46107835398322" />
<vehicle id="type1_30" type="type1" route="wn" depart="34.90742504560411" />
<vehicle id="type1_31" type="type1" route="ns" depart="35.72648043835933" />
<vehicle id="type1_32" type="type1" route="en" depart="37.52871327432004" />
<vehicle id="emv_4" type="rescue" route="se" depart="37.5606604054834" />
<vehicle id="type1_33" type="type1" route="sn" depart="37.98709052928327" />
<vehicle id="type1_34" type="type1" route="es" depart="38.38199714114056" />
<vehicle id="type1_35" type="type1" route="sw" depart="40.18940126803472" />
<vehicle id="type1_36" type="type1" route="ns" depart="40.38437038672135" />
<vehicle id="type1_37" type="type1" route="es" depart="44.51291473835864" />
<vehicle id="type1_38" type="type1" route="we" depart="45.02739580037998" />
<vehicle id="type1_39" type="type1" route="nw" depart="45.285771113026655" />
<vehicle id="type1_40" type="type1" route="sn" depart="46.63544018354153" />
<vehicle id="type1_41" type="type1" route="ew" depart="47.29377045163405" />
<vehicle id="type1_42" type="type1" route="ne" depart="49.08894778015621" />
<vehicle id="type1_43" type="type1" route="ne" depart="49.97113940018023" />
<vehicle id="type1_44" type="type1" route="ew" depart="50.826281714005745" />
<vehicle id="type1_45" type="type1" route="es" depart="55.235828300035685" />
<vehicle id="type1_46" type="type1" route="wn" depart="56.32011694269894" />
<vehicle id="type1_47" type="type1" route="sn" depart="57.16040336025596" />
<vehicle id="type1_48" type="type1" route="en" depart="57.379305423616245" />
<vehicle id="type1_49" type="type1" route="es" depart="58.002920276757784" />
<vehicle id="type1_50" type="type1" route="wn" depart="61.24371703076006" />
<vehicle id="type1_51" type="type1" route="nw" depart="61.34602886669293" />
<vehicle id="type1_52" type="type1" route="sn" depart="61.85685434082753" />
<vehicle id="type1_53" type="type1" route="nw" depart="62.44435622167073" />
<vehicle id="type1_54" type="type1" route="wn" depart="63.12061016226855" />
<vehicle id="type1_55" type="type1" route="se" depart="66.03200864862677" />
<vehicle id="type1_56" type="type1" route="nw" depart="67.36192342832508" />
<vehicle id="emv_5" type="rescue" route="ns" depart="68.18341362060868" />
<vehicle id="type1_57" type="type1" route="se" depart="69.25999714948178" />
<vehicle id="type1_58" type="type1" route="ne" depart="69.48812843265291" />
<vehicle id="type1_59" type="type1" route="ns" depart="70.68476953145115" />
<vehicle id="type1_60" type="type1" route="ns" depart="71.73705031668482" />
<vehicle id="type1_61" type="type1" route="wn" depart="72.79122583328298" />
<vehicle id="type1_62" type="type1" route="sn" depart="73.00377734153881" />
<vehicle id="type1_63" type="type1" route="se" depart="74.36755177116275" />
<vehicle id="type1_64" type="type1" route="sn" depart="75.43268578711772" />
<vehicle id="type1_65" type="type1" route="es" depart="76.67523127886291" />
<vehicle id="type1_66" type="type1" route="ws" depart="77.63184267109222" />
<vehicle id="type1_67" type="type1" route="ew" depart="79.37030479858812" />
<vehicle id="type1_68" type="type1" route="sw" depart="80.78575156936394" />
<vehicle id="type1_69" type="type1" route="en" depart="81.61316228928933" />
<vehicle id="type1_70" type="type1" route="ne" depart="82.3654361800723" />
<vehicle id="type1_71" type="type1" route="we" depart="82.87542487784974" />
<vehicle id="type1_72" type="type1" route="wn" depart="85.55412456304883" />
<vehicle id="type1_73" type="type1" route="sn" depart="85.87310185462267" />
<vehicle id="emv_6" type="rescue" route="ns" depart="88.47419241110927" />
<vehicle id="type1_74" type="type1" route="se" depart="88.81681470607235" />
<vehicle id="type1_75" type="type1" route="en" depart="89.00545331631524" />
<vehicle id="type1_76" type="type1" route="ns" depart="89.41710944565071" />
<vehicle id="type1_77" type="type1" route="sw" depart="90.04222242215072" />
<vehicle id="emv_7" type="rescue" route="ns" depart="91.05337860866109" />
<vehicle id="type1_78" type="type1" route="es" depart="91.0983869489015" />
<vehicle id="type1_79" type="type1" route="sn" depart="91.28209334533808" />
<vehicle id="type1_80" type="type1" route="wn" depart="93.1134246766864" />
<vehicle id="emv_8" type="rescue" route="en" depart="94.13866271639795" />
<vehicle id="type1_81" type="type1" route="nw" depart="95.00076732922831" />
<vehicle id="type1_82" type="type1" route="en" depart="96.08891470150807" />
<vehicle id="type1_83" type="type1" route="ns" depart="96.61631286591913" />
<vehicle id="type1_84" type="type1" route="es" depart="96.98104054021977" />
<vehicle id="type1_85" type="type1" route="sn" depart="98.40577011222621" />
<vehicle id="type1_86" type="type1" route="ws" depart="100.80980616777639" />
<vehicle id="type1_87" type="type1" route="ws" depart="102.00700649637098" />
<vehicle id="type1_88" type="type1" route="we" depart="102.71878558821336" />
<vehicle id="type1_89" type="type1" route="en" depart="106.99346330215218" />
<vehicle id="type1_90" type="type1" route="ew" depart="107.07846174559663" />
<vehicle id="type1_91" type="type1" route="we" depart="107.13761674263398" />
<vehicle id="type1_92" type="type1" route="se" depart="107.23747836380686" />
<vehicle id="type1_93" type="type1" route="se" depart="107.29040921930228" />
<vehicle id="type1_94" type="type1" route="we" depart="108.04104275491615" />
<vehicle id="type1_95" type="type1" route="se" depart="111.46318759815671" />
<vehicle id="type1_96" type="type1" route="ne" depart="113.11578765984588" />
<vehicle id="type1_97" type="type1" route="ew" depart="114.92709759831237" />
<vehicle id="type1_98" type="type1" route="en" depart="115.60051427775613" />
<vehicle id="type1_99" type="type1" route="es" depart="118.48839300835512" />
<vehicle id="type1_100" type="type1" route="es" depart="118.66951599005891" />
<vehicle id="type1_101" type="type1" route="sw" depart="118.93440636520762" />
<vehicle id="type1_102" type="type1" route="se" depart="119.47364093327151" />
<vehicle id="type1_103" type="type1" route="ew" depart="119.78631911402964" />
<vehicle id="type1_104" type="type1" route="es" depart="120.64528560285112" />
<vehicle id="type1_105" type="type1" route="sn" depart="121.42043262119014" />
<vehicle id="type1_106" type="type1" route="wn" depart="122.25702543950297" />
<vehicle id="type1_107" type="type1" route="ws" depart="126.80488197864862" />
<vehicle id="type1_108" type="type1" route="ew" depart="132.00224719828284" />
<vehicle id="type1_109" type="type1" route="se" depart="134.01264633502123" />
<vehicle id="emv_9" type="rescue" route="nw" depart="134.22966391513467" />
<vehicle id="type1_110" type="type1" route="se" depart="135.7299493831237" />
<vehicle id="type1_111" type="type1" route="ns" depart="137.42016730214624" />
<vehicle id="type1_112" type="type1" route="ws" depart="138.48791949190723" />
<vehicle id="type1_113" type="type1" route="ne" depart="139.7037480256945" />
<vehicle id="type1_114" type="type1" route="we" depart="140.0871345094996" />
<vehicle id="type1_115" type="type1" route="ws" depart="140.56151025979435" />
<vehicle id="type1_116" type="type1" route="ew" depart="141.8696956474154" />
<vehicle id="type1_117" type="type1" route="nw" depart="142.614788382658" />
<vehicle id="type1_118" type="type1" route="es" depart="142.7353507645785" />
<vehicle id="type1_119" type="type1" route="ne" depart="143.40878290712266" />
<vehicle id="type1_120" type="type1" route="ws" depart="144.3079080762537" />
<vehicle id="type1_121" type="type1" route="se" depart="144.58894190471153" />
<vehicle id="emv_10" type="rescue" route="wn" depart="146.0900363156454" />
<vehicle id="type1_122" type="type1" route="wn" depart="146.64050505537458" />
<vehicle id="type1_123" type="type1" route="en" depart="147.1386912284209" />
<vehicle id="type1_124" type="type1" route="wn" depart="148.64699298032713" />
<vehicle id="type1_125" type="type1" route="wn" depart="152.0442915691925" />
<vehicle id="type1_126" type="type1" route="ew" depart="152.59408581883545" />
<vehicle id="type1_127" type="type1" route="we" depart="152.78596769270627" />
<vehicle id="type1_128" type="type1" route="ne" depart="153.92568185648878" />
<vehicle id="type1_129" type="type1" route="ew" depart="154.32721440390955" />
<vehicle id="type1_130" type="type1" route="se" depart="155.32448518769195" />
<vehicle id="type1_131" type="type1" route="we" depart="157.43765789544824" />
<vehicle id="type1_132" type="type1" route="nw" depart="157.84192688007863" />
<vehicle id="emv_11" type="rescue" route="ew" depart="159.03815589419855" />
<vehicle id="type1_133" type="type1" route="ne" depart="159.29323274973407" />
<vehicle id="type1_134" type="type1" route="sw" depart="160.2865699371935" />
<vehicle id="type1_135" type="type1" route="ew" depart="160.5539243845884" />
<vehicle id="type1_136" type="type1" route="sn" depart="160.93958442618614" />
<vehicle id="type1_137" type="type1" route="ew" depart="161.1795045270484" />
<vehicle id="type1_138" type="type1" route="sn" depart="162.02370741706895" />
<vehicle id="type1_139" type="type1" route="wn" depart="162.16321150738491" />
<vehicle id="emv_12" type="rescue" route="sn" depart="162.97086829982692" />
<vehicle id="type1_140" type="type1" route="nw" depart="163.57945005636302" />
<vehicle id="type1_141" type="type1" route="se" depart="163.8555108800978" />
<vehicle id="emv_13" type="rescue" route="ew" depart="165.73705766185446" />
<vehicle id="type1_142" type="type1" route="sw" depart="165.80823660854793" />
<vehicle id="type1_143" type="type1" route="en" depart="166.59064225162703" />
<vehicle id="type1_144" type="type1" route="we" depart="172.33305160720744" />
<vehicle id="type1_145" type="type1" route="nw" depart="174.07873253419962" />
<vehicle id="type1_146" type="type1" route="en" depart="175.85574146089277" />
<vehicle id="type1_147" type="type1" route="ew" depart="177.0964511901332" />
<vehicle id="type1_148" type="type1" route="ne" depart="178.40627215293847" />
<vehicle id="type1_149" type="type1" route="nw" depart="178.78985894583005" />
<vehicle id="type1_150" type="type1" route="en" depart="183.08976500441958" />
<vehicle id="type1_151" type="type1" route="nw" depart="186.02520842064908" />
<vehicle id="type1_152" type="type1" route="wn" depart="186.577024241515" />
<vehicle id="type1_153" type="type1" route="nw" depart="187.51752085272474" />
<vehicle id="type1_154" type="type1" route="ne" depart="188.2759380786045" />
<vehicle id="type1_155" type="type1" route="se" depart="188.79013395026226" />
<vehicle id="type1_156" type="type1" route="en" depart="189.17032469884498" />
<vehicle id="type1_157" type="type1" route="nw" depart="189.8547638642078" />
<vehicle id="type1_158" type="type1" route="sn" depart="189.87479468080846" />
<vehicle id="type1_159" type="type1" route="ew" depart="190.47692563910286" />
<vehicle id="type1_160" type="type1" route="nw" depart="190.6159040990186" />
<vehicle id="type1_161" type="type1" route="nw" depart="190.61915798218087" />
<vehicle id="type1_162" type="type1" route="se" depart="191.4551347756972" />
<vehicle id="type1_163" type="type1" route="we" depart="192.36560689549447" />
<vehicle id="emv_14" type="rescue" route="se" depart="192.44669886364463" />
<vehicle id="emv_15" type="rescue" route="se" depart="194.06666920821826" />
<vehicle id="type1_164" type="type1" route="ns" depart="195.23962694209138" />
<vehicle id="type1_165" type="type1" route="se" depart="199.0100543706492" />
<vehicle id="type1_166" type="type1" route="es" depart="199.15881379861426" />
<vehicle id="type1_167" type="type1" route="sw" depart="200.63272065782417" />
<vehicle id="type1_168" type="type1" route="ns" depart="201.01020055006597" />
<vehicle id="type1_169" type="type1" route="sw" depart="201.46171469437093" />
<vehicle id="type1_170" type="type1" route="wn" depart="202.4728978262935" />
<vehicle id="type1_171" type="type1" route="es" depart="203.13216463390594" />
<vehicle id="emv_16" type="rescue" route="nw" depart="203.56372191756637" />
<vehicle id="type1_172" type="type1" route="se" depart="207.06833880442443" />
<vehicle id="type1_173" type="type1" route="ns" depart="207.52601255439123" />
<vehicle id="type1_174" type="type1" route="sn" depart="210.33722742391978" />
<vehicle id="type1_175" type="type1" route="se" depart="211.4540564335843" />
<vehicle id="type1_176" type="type1" route="es" depart="211.70486255348078" />
<vehicle id="type1_177" type="type1" route="en" depart="212.16551183205058" />
<vehicle id="type1_178" type="type1" route="sw" depart="213.78481616252233" />
<vehicle id="type1_179" type="type1" route="ns" depart="217.2599752576197" />
<vehicle id="type1_180" type="type1" route="ne" depart="217.6393727586986" />
<vehicle id="type1_181" type="type1" route="se" depart="218.55043918234864" />
<vehicle id="type1_182" type="type1" route="nw" depart="219.8297417091727" />
<vehicle id="type1_183" type="type1" route="ew" depart="220.80297668664173" />
<vehicle id="emv_17" type="rescue" route="sn" depart="221.5997963156367" />
<vehicle id="type1_184" type="type1" route="nw" depart="222.50297315134117" />
<vehicle id="type1_185" type="type1" route="nw" depart="223.56349779295445" />
<vehicle id="type1_186" type="type1" route="en" depart="223.81009419889745" />
<vehicle id="type1_187" type="type1" route="en" depart="224.54574829548557" />
<vehicle id="type1_188" type="type1" route="sw" depart="224.5703461393718" />
<vehicle id="type1_189" type="type1" route="se" depart="225.3672812526574" />
<vehicle id="type1_190" type="type1" route="ne" depart="227.6224673469869" />
<vehicle id="type1_191" type="type1" route="ns" depart="229.72034995201298" />
<vehicle id="type1_192" type="type1" route="ne" depart="229.83039603426593" />
<vehicle id="type1_193" type="type1" route="nw" depart="229.97080177593577" />
<vehicle id="type1_194" type="type1" route="se" depart="230.12948867265166" />
<vehicle id="type1_195" type="type1" route="we" depart="232.35290889949982" />
<vehicle id="type1_196" type="type1" route="we" depart="234.5364927672842" />
<vehicle id="type1_197" type="type1" route="se" depart="234.83475928968238" />
<vehicle id="type1_198" type="type1" route="sw" depart="236.6827116035607" />
<vehicle id="type1_199" type="type1" route="ws" depart="240.07372713191342" />
<vehicle id="type1_200" type="type1" route="sn" depart="240.84749319924748" />
<vehicle id="type1_201" type="type1" route="nw" depart="242.6342570687845" />
<vehicle id="type1_202" type="type1" route="we" depart="243.22309405307038" />
<vehicle id="type1_203" type="type1" route="ws" depart="246.19867099726682" />
<vehicle id="type1_204" type="type1" route="we" depart="246.2035569190004" />
<vehicle id="type1_205" type="type1" route="es" depart="247.05653303062522" />
<vehicle id="type1_206" type="type1" route="ns" depart="247.87702837985373" />
<vehicle id="type1_207" type="type1" route="nw" depart="248.1134066987097" />
<vehicle id="type1_208" type="type1" route="sw" depart="248.8945204155478" />
<vehicle id="type1_209" type="type1" route="ns" depart="249.09689076824304" />
<vehicle id="type1_210" type="type1" route="es" depart="249.90037052186022" />
<vehicle id="type1_211" type="type1" route="ew" depart="253.52391012867338" />
<vehicle id="type1_212" type="type1" route="wn" depart="255.97255504662874" />
<vehicle id="type1_213" type="type1" route="sw" depart="257.5117716729632" />
<vehicle id="type1_214" type="type1" route="sw" depart="258.83695683736624" />
<vehicle id="type1_215" type="type1" route="ne" depart="262.112559307232" />
<vehicle id="type1_216" type="type1" route="wn" depart="263.46629815165187" />
<vehicle id="type1_217" type="type1" route="en" depart="263.4838169123147" />
<vehicle id="type1_218" type="type1" route="en" depart="265.84743362873076" />
<vehicle id="type1_219" type="type1" route="ws" depart="267.8000014904218" />
<vehicle id="type1_220" type="type1" route="nw" depart="268.486049568321" />
<vehicle id="type1_221" type="type1" route="ew" depart="269.21673804044866" />
<vehicle id="type1_222" type="type1" route="ws" depart="269.32537088191197" />
<vehicle id="type1_223" type="type1" route="es" depart="269.6173833971573" />
<vehicle id="type1_224" type="type1" route="sn" depart="271.40034141754876" />
<vehicle id="type1_225" type="type1" route="we" depart="272.5629231218247" />
<vehicle id="type1_226" type="type1" route="se" depart="273.2781636413865" />
<vehicle id="type1_227" type="type1" route="sn" depart="273.7426524463157" />
<vehicle id="type1_228" type="type1" route="ws" depart="274.5901337865064" />
<vehicle id="type1_229" type="type1" route="nw" depart="274.8303068248393" />
<vehicle id="type1_230" type="type1" route="we" depart="275.3581052190213" />
<vehicle id="type1_231" type="type1" route="ne" depart="277.0177718300922" />
<vehicle id="type1_232" type="type1" route="se" depart="277.4964057396315" />
<vehicle id="type1_233" type="type1" route="ws" depart="277.71182447478014" />
<vehicle id="type1_234" type="type1" route="en" depart="278.32371927574496" />
<vehicle id="type1_235" type="type1" route="ew" depart="278.85879024227796" />
<vehicle id="type1_236" type="type1" route="wn" depart="281.17866733432317" />
<vehicle id="type1_237" type="type1" route="sw" depart="281.5096909293121" />
<vehicle id="emv_18" type="rescue" route="we" depart="281.8893357058727" />
<vehicle id="type1_238" type="type1" route="ws" depart="282.5371719342088" />
<vehicle id="type1_239" type="type1" route="nw" depart="284.2504843824843" />
<vehicle id="type1_240" type="type1" route="ne" depart="286.0831984544623" />
<vehicle id="type1_241" type="type1" route="sw" depart="286.33244359541567" />
<vehicle id="type1_242" type="type1" route="se" depart="288.06454316002527" />
<vehicle id="type1_243" type="type1" route="ns" depart="288.31347252628217" />
<vehicle id="type1_244" type="type1" route="ws" depart="288.3747118436825" />
<vehicle id="emv_19" type="rescue" route="ne" depart="289.9749172835354" />
<vehicle id="type1_245" type="type1" route="ew" depart="292.66013182397495" />
<vehicle id="type1_246" type="type1" route="we" depart="292.9127720819841" />
<vehicle id="type1_247" type="type1" route="wn" depart="293.4874072125066" />
<vehicle id="type1_248" type="type1" route="ws" depart="295.3210808968339" />
<vehicle id="type1_249" type="type1" route="ns" depart="296.01107415877823" />
<vehicle id="type1_250" type="type1" route="ew" depart="300.7280321303567" />
<vehicle id="type1_251" type="type1" route="se" depart="302.4245456344458" />
<vehicle id="type1_252" type="type1" route="ws" depart="305.35699155865376" />
<vehicle id="type1_253" type="type1" route="we" depart="305.50377949942947" />
<vehicle id="type1_254" type="type1" route="ws" depart="306.4117279754752" />
<vehicle id="emv_20" type="rescue" route="we" depart="308.0326189001385" />
<vehicle id="type1_255" type="type1" route="en" depart="309.7272736710326" />
<vehicle id="type1_256" type="type1" route="se" depart="311.87346182069655" />
<vehicle id="type1_257" type="type1" route="sw" depart="313.1211941552503" />
<vehicle id="type1_258" type="type1" route="we" depart="316.06259492467876" />
<vehicle id="type1_259" type="type1" route="we" depart="316.3202369404479" />
<vehicle id="emv_21" type="rescue" route="en" depart="318.3972674481951" />
<vehicle id="type1_260" type="type1" route="sw" depart="319.04152617286275" />
<vehicle id="type1_261" type="type1" route="nw" depart="321.1732094499156" />
<vehicle id="type1_262" type="type1" route="wn" depart="321.2861026919714" />
<vehicle id="type1_263" type="type1" route="ns" depart="322.44052549974555" />
<vehicle id="type1_264" type="type1" route="sn" depart="326.2258833127237" />
<vehicle id="type1_265" type="type1" route="en" depart="327.54235681992697" />
<vehicle id="type1_266" type="type1" route="sn" depart="328.0751562329193" />
<vehicle id="type1_267" type="type1" route="nw" depart="332.08944436213596" />
<vehicle id="type1_268" type="type1" route="we" depart="334.63929058431154" />
<vehicle id="type1_269" type="type1" route="ew" depart="335.4848760065128" />
<vehicle id="type1_270" type="type1" route="es" depart="337.02560214027375" />
<vehicle id="type1_271" type="type1" route="sn" depart="338.487205018586" />
<vehicle id="type1_272" type="type1" route="ew" depart="339.1946977341262" />
<vehicle id="type1_273" type="type1" route="we" depart="343.59475711070877" />
<vehicle id="type1_274" type="type1" route="ws" depart="345.08605708072145" />
<vehicle id="type1_275" type="type1" route="ne" depart="345.4557503272633" />
<vehicle id="type1_276" type="type1" route="es" depart="346.948654895654" />
<vehicle id="type1_277" type="type1" route="ns" depart="348.20890144387965" />
<vehicle id="type1_278" type="type1" route="se" depart="350.7218486805363" />
<vehicle id="type1_279" type="type1" route="ns" depart="350.8789894683192" />
</routes>