<routes>
            <vType id="type1" accel="0.8" decel="4.5" sigma="0.5" length="5" maxSpeed="70"/>
            <route id="ne" edges="ni eo"/>
            <route id="ns" edges="ni so"/>
            <route id="nw" edges="ni wo"/>
            <route id="en" edges="ei no"/>
            <route id="es" edges="ei so"/>
            <route id="ew" edges="ei wo"/>
            <route id="sn" edges="si no"/>
            <route id="se" edges="si eo"/>
            <route id="sw" edges="si wo"/>
            <route id="wn" edges="wi no"/>
            <route id="we" edges="wi eo"/>
            <route id="ws" edges="wi so"/>
        <vehicle id="se_0" type="type1" route="se" depart="0" />
<vehicle id="ne_1" type="type1" route="ne" depart="0" />
<vehicle id="sn_2" type="type1" route="sn" depart="0" />
<vehicle id="we_3" type="type1" route="we" depart="0" />
<vehicle id="ne_4" type="type1" route="ne" depart="0" />
<vehicle id="ew_5" type="type1" route="ew" depart="0" />
<vehicle id="ws_6" type="type1" route="ws" depart="0" />
<vehicle id="ne_7" type="type1" route="ne" depart="0" />
<vehicle id="nw_8" type="type1" route="nw" depart="0" />
<vehicle id="se_9" type="type1" route="se" depart="0" />
<vehicle id="we_10" type="type1" route="we" depart="0" />
<vehicle id="nw_11" type="type1" route="nw" depart="0" />
<vehicle id="we_12" type="type1" route="we" depart="0" />
<vehicle id="sn_13" type="type1" route="sn" depart="0" />
<vehicle id="en_14" type="type1" route="en" depart="0" />
<vehicle id="wn_15" type="type1" route="wn" depart="0" />
<vehicle id="wn_16" type="type1" route="wn" depart="0" />
<vehicle id="nw_17" type="type1" route="nw" depart="0" />
<vehicle id="es_18" type="type1" route="es" depart="0" />
<vehicle id="en_19" type="type1" route="en" depart="0" />
<vehicle id="sw_20" type="type1" route="sw" depart="0" />
<vehicle id="sn_21" type="type1" route="sn" depart="0" />
<vehicle id="wn_22" type="type1" route="wn" depart="0" />
<vehicle id="sw_23" type="type1" route="sw" depart="0" />
<vehicle id="en_24" type="type1" route="en" depart="0" />
<vehicle id="en_25" type="type1" route="en" depart="0" />
<vehicle id="sn_26" type="type1" route="sn" depart="0" />
<vehicle id="wn_27" type="type1" route="wn" depart="0" />
<vehicle id="sw_28" type="type1" route="sw" depart="0" />
<vehicle id="ns_29" type="type1" route="ns" depart="0" />
<vehicle id="wn_30" type="type1" route="wn" depart="0" />
<vehicle id="wn_31" type="type1" route="wn" depart="0" />
<vehicle id="ns_32" type="type1" route="ns" depart="0" />
<vehicle id="en_33" type="type1" route="en" depart="0" />
<vehicle id="se_34" type="type1" route="se" depart="0" />
<vehicle id="sn_35" type="type1" route="sn" depart="0" />
<vehicle id="es_36" type="type1" route="es" depart="0" />
<vehicle id="sw_37" type="type1" route="sw" depart="0" />
<vehicle id="ns_38" type="type1" route="ns" depart="0" />
<vehicle id="es_39" type="type1" route="es" depart="0" />
<vehicle id="we_40" type="type1" route="we" depart="0" />
<vehicle id="nw_41" type="type1" route="nw" depart="0" />
<vehicle id="sn_42" type="type1" route="sn" depart="0" />
<vehicle id="ew_43" type="type1" route="ew" depart="0" />
<vehicle id="ne_44" type="type1" route="ne" depart="0" />
<vehicle id="ne_45" type="type1" route="ne" depart="0" />
<vehicle id="ew_46" type="type1" route="ew" depart="0" />
<vehicle id="es_47" type="type1" route="es" depart="0" />
<vehicle id="wn_48" type="type1" route="wn" depart="0" />
<vehicle id="sn_49" type="type1" route="sn" depart="0" />
<vehicle id="en_50" type="type1" route="en" depart="0" />
<vehicle id="es_51" type="type1" route="es" depart="0" />
<vehicle id="wn_52" type="type1" route="wn" depart="0" />
<vehicle id="nw_53" type="type1" route="nw" depart="0" />
<vehicle id="sn_54" type="type1" route="sn" depart="0" />
<vehicle id="nw_55" type="type1" route="nw" depart="0" />
<vehicle id="wn_56" type="type1" route="wn" depart="0" />
<vehicle id="se_57" type="type1" route="se" depart="0" />
<vehicle id="nw_58" type="type1" route="nw" depart="0" />
<vehicle id="ns_59" type="type1" route="ns" depart="0" />
<vehicle id="se_60" type="type1" route="se" depart="0" />
<vehicle id="ne_61" type="type1" route="ne" depart="0" />
<vehicle id="ns_62" type="type1" route="ns" depart="0" />
<vehicle id="ns_63" type="type1" route="ns" depart="0" />
<vehicle id="wn_64" type="type1" route="wn" depart="0" />
<vehicle id="sn_65" type="type1" route="sn" depart="0" />
<vehicle id="se_66" type="type1" route="se" depart="0" />
<vehicle id="sn_67" type="type1" route="sn" depart="0" />
<vehicle id="es_68" type="type1" route="es" depart="0" />
<vehicle id="ws_69" type="type1" route="ws" depart="0" />
<vehicle id="ew_70" type="type1" route="ew" depart="0" />
<vehicle id="sw_71" type="type1" route="sw" depart="0" />
<vehicle id="en_72" type="type1" route="en" depart="0" />
<vehicle id="ne_73" type="type1" route="ne" depart="0" />
<vehicle id="we_74" type="type1" route="we" depart="0" />
<vehicle id="wn_75" type="type1" route="wn" depart="0" />
<vehicle id="sn_76" type="type1" route="sn" depart="0" />
<vehicle id="ns_77" type="type1" route="ns" depart="0" />
<vehicle id="se_78" type="type1" route="se" depart="0" />
<vehicle id="en_79" type="type1" route="en" depart="0" />
<vehicle id="ns_80" type="type1" route="ns" depart="0" />
<vehicle id="sw_81" type="type1" route="sw" depart="0" />
<vehicle id="ns_82" type="type1" route="ns" depart="0" />
<vehicle id="es_83" type="type1" route="es" depart="0" />
<vehicle id="sn_84" type="type1" route="sn" depart="0" />
<vehicle id="wn_85" type="type1" route="wn" depart="0" />
<vehicle id="en_86" type="type1" route="en" depart="0" />
<vehicle id="nw_87" type="type1" route="nw" depart="0" />
<vehicle id="en_88" type="type1" route="en" depart="0" />
<vehicle id="ns_89" type="type1" route="ns" depart="0" />
<vehicle id="es_90" type="type1" route="es" depart="0" />
<vehicle id="sn_91" type="type1" route="sn" depart="0" />
<vehicle id="ws_92" type="type1" route="ws" depart="0" />
<vehicle id="ws_93" type="type1" route="ws" depart="0" />
<vehicle id="we_94" type="type1" route="we" depart="0" />
<vehicle id="en_95" type="type1" route="en" depart="0" />
<vehicle id="ew_96" type="type1" route="ew" depart="0" />
<vehicle id="we_97" type="type1" route="we" depart="0" />
<vehicle id="se_98" type="type1" route="se" depart="0" />
<vehicle id="se_99" type="type1" route="se" depart="0" />
<vehicle id="we_100" type="type1" route="we" depart="0" />
<vehicle id="se_101" type="type1" route="se" depart="0" />
<vehicle id="ne_102" type="type1" route="ne" depart="0" />
<vehicle id="ew_103" type="type1" route="ew" depart="0" />
<vehicle id="en_104" type="type1" route="en" depart="0" />
<vehicle id="es_105" type="type1" route="es" depart="0" />
<vehicle id="es_106" type="type1" route="es" depart="0" />
<vehicle id="sw_107" type="type1" route="sw" depart="0" />
<vehicle id="se_108" type="type1" route="se" depart="0" />
<vehicle id="ew_109" type="type1" route="ew" depart="0" />
<vehicle id="es_110" type="type1" route="es" depart="0" />
<vehicle id="sn_111" type="type1" route="sn" depart="0" />
<vehicle id="wn_112" type="type1" route="wn" depart="0" />
<vehicle id="ws_113" type="type1" route="ws" depart="0" />
<vehicle id="ew_114" type="type1" route="ew" depart="0" />
<vehicle id="se_115" type="type1" route="se" depart="0" />
<vehicle id="nw_116" type="type1" route="nw" depart="0" />
<vehicle id="se_117" type="type1" route="se" depart="0" />
<vehicle id="ns_118" type="type1" route="ns" depart="0" />
<vehicle id="ws_119" type="type1" route="ws" depart="0" />
<vehicle id="ne_120" type="type1" route="ne" depart="0" />
<vehicle id="we_121" type="type1" route="we" depart="0" />
<vehicle id="ws_122" type="type1" route="ws" depart="0" />
<vehicle id="ew_123" type="type1" route="ew" depart="0" />
<vehicle id="nw_124" type="type1" route="nw" depart="0" />
<vehicle id="es_125" type="type1" route="es" depart="0" />
<vehicle id="ne_126" type="type1" route="ne" depart="0" />
<vehicle id="ws_127" type="type1" route="ws" depart="0" />
<vehicle id="se_128" type="type1" route="se" depart="0" />
<vehicle id="wn_129" type="type1" route="wn" depart="0" />
<vehicle id="wn_130" type="type1" route="wn" depart="0" />
<vehicle id="en_131" type="type1" route="en" depart="0" />
<vehicle id="wn_132" type="type1" route="wn" depart="0" />
<vehicle id="wn_133" type="type1" route="wn" depart="0" />
<vehicle id="ew_134" type="type1" route="ew" depart="0" />
<vehicle id="we_135" type="type1" route="we" depart="0" />
<vehicle id="ne_136" type="type1" route="ne" depart="0" />
<vehicle id="ew_137" type="type1" route="ew" depart="0" />
<vehicle id="se_138" type="type1" route="se" depart="0" />
<vehicle id="we_139" type="type1" route="we" depart="0" />
<vehicle id="nw_140" type="type1" route="nw" depart="0" />
<vehicle id="ew_141" type="type1" route="ew" depart="0" />
<vehicle id="ne_142" type="type1" route="ne" depart="0" />
<vehicle id="sw_143" type="type1" route="sw" depart="0" />
<vehicle id="ew_144" type="type1" route="ew" depart="0" />
<vehicle id="sn_145" type="type1" route="sn" depart="0" />
<vehicle id="ew_146" type="type1" route="ew" depart="0" />
<vehicle id="sn_147" type="type1" route="sn" depart="0" />
<vehicle id="wn_148" type="type1" route="wn" depart="0" />
<vehicle id="sn_149" type="type1" route="sn" depart="0" />
<vehicle id="nw_150" type="type1" route="nw" depart="0" />
<vehicle id="se_151" type="type1" route="se" depart="0" />
<vehicle id="ew_152" type="type1" route="ew" depart="0" />
<vehicle id="sw_153" type="type1" route="sw" depart="0" />
<vehicle id="en_154" type="type1" route="en" depart="0" />
<vehicle id="we_155" type="type1" route="we" depart="0" />
<vehicle id="nw_156" type="type1" route="nw" depart="0" />
<vehicle id="en_157" type="type1" route="en" depart="0" />
<vehicle id="ew_158" type="type1" route="ew" depart="0" />
<vehicle id="ne_159" type="type1" route="ne" depart="0" />
<vehicle id="nw_160" type="type1" route="nw" depart="0" />
<vehicle id="en_161" type="type1" route="en" depart="0" />
<vehicle id="nw_162" type="type1" route="nw" depart="0" />
<vehicle id="wn_163" type="type1" route="wn" depart="0" />
<vehicle id="nw_164" type="type1" route="nw" depart="0" />
<vehicle id="ne_165" type="type1" route="ne" depart="0" />
<vehicle id="se_166" type="type1" route="se" depart="0" />
<vehicle id="en_167" type="type1" route="en" depart="0" />
<vehicle id="nw_168" type="type1" route="nw" depart="0" />
<vehicle id="sn_169" type="type1" route="sn" depart="0" />
<vehicle id="ew_170" type="type1" route="ew" depart="0" />
<vehicle id="nw_171" type="type1" route="nw" depart="0" />
<vehicle id="nw_172" type="type1" route="nw" depart="0" />
<vehicle id="se_173" type="type1" route="se" depart="0" />
<vehicle id="we_174" type="type1" route="we" depart="0" />
<vehicle id="se_175" type="type1" route="se" depart="0" />
<vehicle id="se_176" type="type1" route="se" depart="0" />
<vehicle id="ns_177" type="type1" route="ns" depart="0" />
<vehicle id="se_178" type="type1" route="se" depart="0" />
<vehicle id="es_179" type="type1" route="es" depart="0" />
<vehicle id="sw_180" type="type1" route="sw" depart="0" />
<vehicle id="ns_181" type="type1" route="ns" depart="0" />
<vehicle id="sw_182" type="type1" route="sw" depart="0" />
<vehicle id="wn_183" type="type1" route="wn" depart="0" />
<vehicle id="es_184" type="type1" route="es" depart="0" />
<vehicle id="nw_185" type="type1" route="nw" depart="0" />
<vehicle id="se_186" type="type1" route="se" depart="0" />
<vehicle id="ns_187" type="type1" route="ns" depart="0" />
<vehicle id="sn_188" type="type1" route="sn" depart="0" />
<vehicle id="se_189" type="type1" route="se" depart="0" />
<vehicle id="es_190" type="type1" route="es" depart="0" />
<vehicle id="en_191" type="type1" route="en" depart="0" />
<vehicle id="sw_192" type="type1" route="sw" depart="0" />
<vehicle id="ns_193" type="type1" route="ns" depart="0" />
<vehicle id="ne_194" type="type1" route="ne" depart="0" />
<vehicle id="se_195" type="type1" route="se" depart="0" />
<vehicle id="nw_196" type="type1" route="nw" depart="0" />
<vehicle id="ew_197" type="type1" route="ew" depart="0" />
<vehicle id="sn_198" type="type1" route="sn" depart="0" />
<vehicle id="nw_199" type="type1" route="nw" depart="0" />
<vehicle id="nw_200" type="type1" route="nw" depart="0" />
<vehicle id="en_201" type="type1" route="en" depart="0" />
<vehicle id="en_202" type="type1" route="en" depart="0" />
<vehicle id="sw_203" type="type1" route="sw" depart="0" />
<vehicle id="se_204" type="type1" route="se" depart="0" />
<vehicle id="ne_205" type="type1" route="ne" depart="0" />
<vehicle id="ns_206" type="type1" route="ns" depart="0" />
<vehicle id="ne_207" type="type1" route="ne" depart="0" />
<vehicle id="nw_208" type="type1" route="nw" depart="0" />
<vehicle id="se_209" type="type1" route="se" depart="0" />
<vehicle id="we_210" type="type1" route="we" depart="0" />
<vehicle id="we_211" type="type1" route="we" depart="0" />
<vehicle id="se_212" type="type1" route="se" depart="0" />
<vehicle id="sw_213" type="type1" route="sw" depart="0" />
<vehicle id="ws_214" type="type1" route="ws" depart="0" />
<vehicle id="sn_215" type="type1" route="sn" depart="0" />
<vehicle id="nw_216" type="type1" route="nw" depart="0" />
<vehicle id="we_217" type="type1" route="we" depart="0" />
<vehicle id="ws_218" type="type1" route="ws" depart="0" />
<vehicle id="we_219" type="type1" route="we" depart="0" />
<vehicle id="es_220" type="type1" route="es" depart="0" />
<vehicle id="ns_221" type="type1" route="ns" depart="0" />
<vehicle id="nw_222" type="type1" route="nw" depart="0" />
<vehicle id="sw_223" type="type1" route="sw" depart="0" />
<vehicle id="ns_224" type="type1" route="ns" depart="0" />
<vehicle id="es_225" type="type1" route="es" depart="0" />
<vehicle id="ew_226" type="type1" route="ew" depart="0" />
<vehicle id="wn_227" type="type1" route="wn" depart="0" />
<vehicle id="sw_228" type="type1" route="sw" depart="0" />
<vehicle id="sw_229" type="type1" route="sw" depart="0" />
<vehicle id="ne_230" type="type1" route="ne" depart="0" />
<vehicle id="wn_231" type="type1" route="wn" depart="0" />
<vehicle id="en_232" type="type1" route="en" depart="0" />
<vehicle id="en_233" type="type1" route="en" depart="0" />
<vehicle id="ws_234" type="type1" route="ws" depart="0" />
<vehicle id="nw_235" type="type1" route="nw" depart="0" />
<vehicle id="ew_236" type="type1" route="ew" depart="0" />
<vehicle id="ws_237" type="type1" route="ws" depart="0" />
<vehicle id="es_238" type="type1" route="es" depart="0" />
<vehicle id="sn_239" type="type1" route="sn" depart="0" />
<vehicle id="we_240" type="type1" route="we" depart="0" />
<vehicle id="se_241" type="type1" route="se" depart="0" />
<vehicle id="sn_242" type="type1" route="sn" depart="0" />
<vehicle id="ws_243" type="type1" route="ws" depart="0" />
<vehicle id="nw_244" type="type1" route="nw" depart="0" />
<vehicle id="we_245" type="type1" route="we" depart="0" />
<vehicle id="ne_246" type="type1" route="ne" depart="0" />
<vehicle id="se_247" type="type1" route="se" depart="0" />
<vehicle id="ws_248" type="type1" route="ws" depart="0" />
<vehicle id="en_249" type="type1" route="en" depart="0" />
<vehicle id="ew_250" type="type1" route="ew" depart="0" />
<vehicle id="wn_251" type="type1" route="wn" depart="0" />
<vehicle id="sw_252" type="type1" route="sw" depart="0" />
<vehicle id="we_253" type="type1" route="we" depart="0" />
<vehicle id="ws_254" type="type1" route="ws" depart="0" />
<vehicle id="nw_255" type="type1" route="nw" depart="0" />
<vehicle id="ne_256" type="type1" route="ne" depart="0" />
<vehicle id="sw_257" type="type1" route="sw" depart="0" />
<vehicle id="se_258" type="type1" route="se" depart="0" />
<vehicle id="ns_259" type="type1" route="ns" depart="0" />
<vehicle id="ws_260" type="type1" route="ws" depart="0" />
<vehicle id="ne_261" type="type1" route="ne" depart="0" />
<vehicle id="ew_262" type="type1" route="ew" depart="0" />
<vehicle id="we_263" type="type1" route="we" depart="0" />
<vehicle id="wn_264" type="type1" route="wn" depart="0" />
<vehicle id="ws_265" type="type1" route="ws" depart="0" />
<vehicle id="ns_266" type="type1" route="ns" depart="0" />
<vehicle id="ew_267" type="type1" route="ew" depart="0" />
<vehicle id="se_268" type="type1" route="se" depart="0" />
<vehicle id="ws_269" type="type1" route="ws" depart="0" />
<vehicle id="we_270" type="type1" route="we" depart="0" />
<vehicle id="ws_271" type="type1" route="ws" depart="0" />
<vehicle id="we_272" type="type1" route="we" depart="0" />
<vehicle id="en_273" type="type1" route="en" depart="0" />
<vehicle id="se_274" type="type1" route="se" depart="0" />
<vehicle id="sw_275" type="type1" route="sw" depart="0" />
<vehicle id="we_276" type="type1" route="we" depart="0" />
<vehicle id="we_277" type="type1" route="we" depart="0" />
<vehicle id="en_278" type="type1" route="en" depart="0" />
<vehicle id="sw_279" type="type1" route="sw" depart="0" />
<vehicle id="nw_280" type="type1" route="nw" depart="0" />
<vehicle id="wn_281" type="type1" route="wn" depart="0" />
<vehicle id="ns_282" type="type1" route="ns" depart="0" />
<vehicle id="sn_283" type="type1" route="sn" depart="0" />
<vehicle id="en_284" type="type1" route="en" depart="0" />
<vehicle id="sn_285" type="type1" route="sn" depart="0" />
<vehicle id="nw_286" type="type1" route="nw" depart="0" />
<vehicle id="we_287" type="type1" route="we" depart="0" />
<vehicle id="ew_288" type="type1" route="ew" depart="0" />
<vehicle id="es_289" type="type1" route="es" depart="0" />
<vehicle id="sn_290" type="type1" route="sn" depart="0" />
<vehicle id="ew_291" type="type1" route="ew" depart="0" />
<vehicle id="we_292" type="type1" route="we" depart="0" />
<vehicle id="ws_293" type="type1" route="ws" depart="0" />
<vehicle id="ne_294" type="type1" route="ne" depart="0" />
<vehicle id="es_295" type="type1" route="es" depart="0" />
<vehicle id="ns_296" type="type1" route="ns" depart="0" />
<vehicle id="se_297" type="type1" route="se" depart="0" />
<vehicle id="ns_298" type="type1" route="ns" depart="0" />
<vehicle id="nw_299" type="type1" route="nw" depart="0" />
<vehicle id="ns_300" type="type1" route="ns" depart="0" />
<vehicle id="sw_301" type="type1" route="sw" depart="0" />
<vehicle id="ne_302" type="type1" route="ne" depart="0" />
<vehicle id="ws_303" type="type1" route="ws" depart="0" />
<vehicle id="wn_304" type="type1" route="wn" depart="0" />
<vehicle id="ns_305" type="type1" route="ns" depart="0" />
<vehicle id="ns_306" type="type1" route="ns" depart="0" />
<vehicle id="sn_307" type="type1" route="sn" depart="0" />
<vehicle id="se_308" type="type1" route="se" depart="0" />
<vehicle id="sn_309" type="type1" route="sn" depart="0" />
<vehicle id="we_310" type="type1" route="we" depart="0" />
<vehicle id="sn_311" type="type1" route="sn" depart="0" />
<vehicle id="es_312" type="type1" route="es" depart="0" />
<vehicle id="nw_313" type="type1" route="nw" depart="0" />
<vehicle id="en_314" type="type1" route="en" depart="0" />
<vehicle id="wn_315" type="type1" route="wn" depart="0" />
<vehicle id="es_316" type="type1" route="es" depart="0" />
<vehicle id="sw_317" type="type1" route="sw" depart="0" />
<vehicle id="wn_318" type="type1" route="wn" depart="0" />
<vehicle id="sw_319" type="type1" route="sw" depart="0" />
<vehicle id="we_320" type="type1" route="we" depart="0" />
<vehicle id="sn_321" type="type1" route="sn" depart="0" />
<vehicle id="en_322" type="type1" route="en" depart="0" />
<vehicle id="wn_323" type="type1" route="wn" depart="0" />
<vehicle id="ne_324" type="type1" route="ne" depart="0" />
<vehicle id="ne_325" type="type1" route="ne" depart="0" />
<vehicle id="se_326" type="type1" route="se" depart="0" />
<vehicle id="es_327" type="type1" route="es" depart="0" />
<vehicle id="en_328" type="type1" route="en" depart="0" />
<vehicle id="sn_329" type="type1" route="sn" depart="0" />
<vehicle id="sw_330" type="type1" route="sw" depart="0" />
<vehicle id="ne_331" type="type1" route="ne" depart="0" />
<vehicle id="sn_332" type="type1" route="sn" depart="0" />
<vehicle id="ew_333" type="type1" route="ew" depart="0" />
<vehicle id="we_334" type="type1" route="we" depart="0" />
<vehicle id="es_335" type="type1" route="es" depart="0" />
<vehicle id="es_336" type="type1" route="es" depart="0" />
<vehicle id="we_337" type="type1" route="we" depart="0" />
<vehicle id="en_338" type="type1" route="en" depart="0" />
<vehicle id="ws_339" type="type1" route="ws" depart="0" />
<vehicle id="sn_340" type="type1" route="sn" depart="0" />
<vehicle id="es_341" type="type1" route="es" depart="0" />
<vehicle id="sw_342" type="type1" route="sw" depart="0" />
<vehicle id="ws_343" type="type1" route="ws" depart="0" />
<vehicle id="es_344" type="type1" route="es" depart="0" />
<vehicle id="ns_345" type="type1" route="ns" depart="0" />
<vehicle id="ws_346" type="type1" route="ws" depart="0" />
<vehicle id="sn_347" type="type1" route="sn" depart="0" />
<vehicle id="sn_348" type="type1" route="sn" depart="0" />
<vehicle id="nw_349" type="type1" route="nw" depart="0" />
<vehicle id="sw_350" type="type1" route="sw" depart="0" />
<vehicle id="es_351" type="type1" route="es" depart="0" />
<vehicle id="ws_352" type="type1" route="ws" depart="0" />
<vehicle id="ws_353" type="type1" route="ws" depart="0" />
<vehicle id="ws_354" type="type1" route="ws" depart="0" />
<vehicle id="sn_355" type="type1" route="sn" depart="0" />
<vehicle id="ns_356" type="type1" route="ns" depart="0" />
<vehicle id="en_357" type="type1" route="en" depart="0" />
<vehicle id="wn_358" type="type1" route="wn" depart="0" />
<vehicle id="sn_359" type="type1" route="sn" depart="0" />
<vehicle id="ne_360" type="type1" route="ne" depart="0" />
<vehicle id="es_361" type="type1" route="es" depart="0" />
<vehicle id="ws_362" type="type1" route="ws" depart="0" />
<vehicle id="wn_363" type="type1" route="wn" depart="0" />
<vehicle id="ws_364" type="type1" route="ws" depart="0" />
<vehicle id="we_365" type="type1" route="we" depart="0" />
<vehicle id="sn_366" type="type1" route="sn" depart="0" />
<vehicle id="ws_367" type="type1" route="ws" depart="0" />
<vehicle id="we_368" type="type1" route="we" depart="0" />
<vehicle id="en_369" type="type1" route="en" depart="0" />
<vehicle id="en_370" type="type1" route="en" depart="0" />
<vehicle id="ws_371" type="type1" route="ws" depart="0" />
<vehicle id="ew_372" type="type1" route="ew" depart="0" />
<vehicle id="ws_373" type="type1" route="ws" depart="0" />
<vehicle id="en_374" type="type1" route="en" depart="0" />
<vehicle id="we_375" type="type1" route="we" depart="0" />
<vehicle id="ne_376" type="type1" route="ne" depart="0" />
<vehicle id="sw_377" type="type1" route="sw" depart="0" />
<vehicle id="nw_378" type="type1" route="nw" depart="0" />
<vehicle id="ws_379" type="type1" route="ws" depart="0" />
<vehicle id="we_380" type="type1" route="we" depart="0" />
<vehicle id="wn_381" type="type1" route="wn" depart="0" />
<vehicle id="en_382" type="type1" route="en" depart="0" />
<vehicle id="ws_383" type="type1" route="ws" depart="0" />
<vehicle id="wn_384" type="type1" route="wn" depart="0" />
<vehicle id="ew_385" type="type1" route="ew" depart="0" />
<vehicle id="sn_386" type="type1" route="sn" depart="0" />
<vehicle id="wn_387" type="type1" route="wn" depart="0" />
<vehicle id="we_388" type="type1" route="we" depart="0" />
<vehicle id="sn_389" type="type1" route="sn" depart="0" />
<vehicle id="se_390" type="type1" route="se" depart="0" />
<vehicle id="ns_391" type="type1" route="ns" depart="0" />
<vehicle id="sw_392" type="type1" route="sw" depart="0" />
<vehicle id="en_393" type="type1" route="en" depart="0" />
<vehicle id="ws_394" type="type1" route="ws" depart="0" />
<vehicle id="en_395" type="type1" route="en" depart="0" />
<vehicle id="ws_396" type="type1" route="ws" depart="0" />
<vehicle id="es_397" type="type1" route="es" depart="0" />
<vehicle id="nw_398" type="type1" route="nw" depart="0" />
<vehicle id="wn_399" type="type1" route="wn" depart="0" />
<vehicle id="nw_400" type="type1" route="nw" depart="0" />
<vehicle id="ne_401" type="type1" route="ne" depart="0" />
<vehicle id="sn_402" type="type1" route="sn" depart="0" />
<vehicle id="se_403" type="type1" route="se" depart="0" />
<vehicle id="wn_404" type="type1" route="wn" depart="0" />
<vehicle id="wn_405" type="type1" route="wn" depart="0" />
<vehicle id="en_406" type="type1" route="en" depart="0" />
<vehicle id="ns_407" type="type1" route="ns" depart="0" />
<vehicle id="ew_408" type="type1" route="ew" depart="0" />
<vehicle id="es_409" type="type1" route="es" depart="0" />
<vehicle id="we_410" type="type1" route="we" depart="0" />
<vehicle id="ne_411" type="type1" route="ne" depart="0" />
<vehicle id="ws_412" type="type1" route="ws" depart="0" />
<vehicle id="ne_413" type="type1" route="ne" depart="0" />
<vehicle id="ne_414" type="type1" route="ne" depart="0" />
<vehicle id="sw_415" type="type1" route="sw" depart="0" />
<vehicle id="sw_416" type="type1" route="sw" depart="0" />
<vehicle id="wn_417" type="type1" route="wn" depart="0" />
<vehicle id="ew_418" type="type1" route="ew" depart="0" />
<vehicle id="nw_419" type="type1" route="nw" depart="0" />
<vehicle id="ew_420" type="type1" route="ew" depart="0" />
<vehicle id="es_421" type="type1" route="es" depart="0" />
<vehicle id="es_422" type="type1" route="es" depart="0" />
<vehicle id="ws_423" type="type1" route="ws" depart="0" />
<vehicle id="ns_424" type="type1" route="ns" depart="0" />
<vehicle id="we_425" type="type1" route="we" depart="0" />
<vehicle id="sn_426" type="type1" route="sn" depart="0" />
<vehicle id="nw_427" type="type1" route="nw" depart="0" />
<vehicle id="nw_428" type="type1" route="nw" depart="0" />
<vehicle id="wn_429" type="type1" route="wn" depart="0" />
<vehicle id="ne_430" type="type1" route="ne" depart="0" />
<vehicle id="ew_431" type="type1" route="ew" depart="0" />
<vehicle id="es_432" type="type1" route="es" depart="0" />
<vehicle id="en_433" type="type1" route="en" depart="0" />
<vehicle id="we_434" type="type1" route="we" depart="0" />
<vehicle id="ne_435" type="type1" route="ne" depart="0" />
<vehicle id="nw_436" type="type1" route="nw" depart="0" />
<vehicle id="sw_437" type="type1" route="sw" depart="0" />
<vehicle id="wn_438" type="type1" route="wn" depart="0" />
<vehicle id="sn_439" type="type1" route="sn" depart="0" />
<vehicle id="es_440" type="type1" route="es" depart="0" />
<vehicle id="es_441" type="type1" route="es" depart="0" />
<vehicle id="we_442" type="type1" route="we" depart="0" />
<vehicle id="ew_443" type="type1" route="ew" depart="0" />
<vehicle id="we_444" type="type1" route="we" depart="0" />
<vehicle id="wn_445" type="type1" route="wn" depart="0" />
<vehicle id="sw_446" type="type1" route="sw" depart="0" />
<vehicle id="wn_447" type="type1" route="wn" depart="0" />
<vehicle id="sw_448" type="type1" route="sw" depart="0" />
<vehicle id="ne_449" type="type1" route="ne" depart="0" />
<vehicle id="se_450" type="type1" route="se" depart="0" />
<vehicle id="ew_451" type="type1" route="ew" depart="0" />
<vehicle id="ws_452" type="type1" route="ws" depart="0" />
<vehicle id="ew_453" type="type1" route="ew" depart="0" />
<vehicle id="es_454" type="type1" route="es" depart="0" />
<vehicle id="sw_455" type="type1" route="sw" depart="0" />
<vehicle id="ne_456" type="type1" route="ne" depart="0" />
<vehicle id="wn_457" type="type1" route="wn" depart="0" />
<vehicle id="sn_458" type="type1" route="sn" depart="0" />
<vehicle id="en_459" type="type1" route="en" depart="0" />
<vehicle id="ew_460" type="type1" route="ew" depart="0" />
<vehicle id="ns_461" type="type1" route="ns" depart="0" />
<vehicle id="ns_462" type="type1" route="ns" depart="0" />
<vehicle id="es_463" type="type1" route="es" depart="0" />
<vehicle id="nw_464" type="type1" route="nw" depart="0" />
<vehicle id="nw_465" type="type1" route="nw" depart="0" />
<vehicle id="ne_466" type="type1" route="ne" depart="0" />
<vehicle id="es_467" type="type1" route="es" depart="0" />
<vehicle id="ew_468" type="type1" route="ew" depart="0" />
<vehicle id="wn_469" type="type1" route="wn" depart="0" />
<vehicle id="ns_470" type="type1" route="ns" depart="0" />
<vehicle id="ne_471" type="type1" route="ne" depart="0" />
<vehicle id="sn_472" type="type1" route="sn" depart="0" />
<vehicle id="ne_473" type="type1" route="ne" depart="0" />
<vehicle id="sn_474" type="type1" route="sn" depart="0" />
<vehicle id="ne_475" type="type1" route="ne" depart="0" />
<vehicle id="es_476" type="type1" route="es" depart="0" />
<vehicle id="sw_477" type="type1" route="sw" depart="0" />
<vehicle id="nw_478" type="type1" route="nw" depart="0" />
<vehicle id="ws_479" type="type1" route="ws" depart="0" />
<vehicle id="es_480" type="type1" route="es" depart="0" />
<vehicle id="es_481" type="type1" route="es" depart="0" />
<vehicle id="nw_482" type="type1" route="nw" depart="0" />
<vehicle id="we_483" type="type1" route="we" depart="0" />
<vehicle id="ne_484" type="type1" route="ne" depart="0" />
<vehicle id="se_485" type="type1" route="se" depart="0" />
<vehicle id="we_486" type="type1" route="we" depart="0" />
<vehicle id="ne_487" type="type1" route="ne" depart="0" />
<vehicle id="wn_488" type="type1" route="wn" depart="0" />
<vehicle id="ws_489" type="type1" route="ws" depart="0" />
<vehicle id="se_490" type="type1" route="se" depart="0" />
<vehicle id="sw_491" type="type1" route="sw" depart="0" />
<vehicle id="sn_492" type="type1" route="sn" depart="0" />
<vehicle id="ew_493" type="type1" route="ew" depart="0" />
<vehicle id="ew_494" type="type1" route="ew" depart="0" />
<vehicle id="wn_495" type="type1" route="wn" depart="0" />
<vehicle id="wn_496" type="type1" route="wn" depart="0" />
<vehicle id="ne_497" type="type1" route="ne" depart="0" />
<vehicle id="ne_498" type="type1" route="ne" depart="0" />