<routes>
            <vType id="type1" accel="0.8" decel="4.5" sigma="0.5" length="5" maxSpeed="70"/>
            <vType id="rescue" vClass="emergency" speedFactor="1.5" guiShape="emergency">
                <param key="has.bluelight.device" value="true"/>
            </vType>
            <route id="ne" edges="ni eo"/>
            <route id="ns" edges="ni so"/>
            <route id="nw" edges="ni wo"/>
            <route id="en" edges="ei no"/>
            <route id="es" edges="ei so"/>
            <route id="ew" edges="ei wo"/>
            <route id="sn" edges="si no"/>
            <route id="se" edges="si eo"/>
            <route id="sw" edges="si wo"/>
            <route id="wn" edges="wi no"/>
            <route id="we" edges="wi eo"/>
            <route id="ws" edges="wi so"/>
        
            <personFlow id="p_ns" begin="0" end="600" period="50">
                <walk route="ns"/>
            </personFlow>
                         
            <personFlow id="p_sn" begin="0" end="600" period="50">
                <walk route="sn"/>
            </personFlow>
                         
            <personFlow id="p_we" begin="0" end="600" period="50">
                <walk route="we"/>
            </personFlow>
                         
            <personFlow id="p_ew" begin="0" end="600" period="50">
                <walk route="ew"/>
            </personFlow>
                         <vehicle id="type1_1" type="type1" route="sw" depart="0.7784069659380594" />
<vehicle id="type1_2" type="type1" route="es" depart="0.8581518539418276" />
<vehicle id="type1_3" type="type1" route="en" depart="1.7510938090621455" />
<vehicle id="type1_4" type="type1" route="se" depart="2.217478345695492" />
<vehicle id="type1_5" type="type1" route="ws" depart="2.376445431067915" />
<vehicle id="type1_6" type="type1" route="sw" depart="4.009388692708161" />
<vehicle id="type1_7" type="type1" route="sn" depart="5.115313566595635" />
<vehicle id="type1_8" type="type1" route="se" depart="5.666104660886768" />
<vehicle id="type1_9" type="type1" route="sw" depart="5.950112067698136" />
<vehicle id="type1_10" type="type1" route="es" depart="6.152985411493824" />
<vehicle id="type1_11" type="type1" route="ew" depart="6.2196225445498605" />
<vehicle id="type1_12" type="type1" route="wn" depart="6.379637319450516" />
<vehicle id="type1_13" type="type1" route="ws" depart="7.1152756255117895" />
<vehicle id="type1_14" type="type1" route="we" depart="7.976939749227957" />
<vehicle id="type1_15" type="type1" route="nw" depart="7.999891987955677" />
<vehicle id="type1_16" type="type1" route="ns" depart="10.056083496329029" />
<vehicle id="type1_17" type="type1" route="ws" depart="13.748401325525704" />
<vehicle id="type1_18" type="type1" route="es" depart="14.109615985905577" />
<vehicle id="type1_19" type="type1" route="we" depart="14.33565559343068" />
<vehicle id="type1_20" type="type1" route="we" depart="14.504648934718405" />
<vehicle id="type1_21" type="type1" route="we" depart="15.146115879131177" />
<vehicle id="type1_22" type="type1" route="ws" depart="15.461339179183943" />
<vehicle id="type1_23" type="type1" route="we" depart="16.037052245809598" />
<vehicle id="type1_24" type="type1" route="se" depart="19.113299443960162" />
<vehicle id="type1_25" type="type1" route="se" depart="19.318742969528582" />
<vehicle id="type1_26" type="type1" route="se" depart="19.70819523068243" />
<vehicle id="type1_27" type="type1" route="ne" depart="19.778365787751266" />
<vehicle id="type1_28" type="type1" route="ws" depart="19.799274404373513" />
<vehicle id="type1_29" type="type1" route="ew" depart="20.637029374444385" />
<vehicle id="type1_30" type="type1" route="ws" depart="22.451437118448972" />
<vehicle id="type1_31" type="type1" route="wn" depart="22.773248552773428" />
<vehicle id="type1_32" type="type1" route="en" depart="23.53872059892225" />
<vehicle id="type1_33" type="type1" route="ne" depart="24.201464112049386" />
<vehicle id="type1_34" type="type1" route="ns" depart="24.31648825355264" />
<vehicle id="type1_35" type="type1" route="ns" depart="24.50307678443327" />
<vehicle id="type1_36" type="type1" route="ws" depart="24.942094737311113" />
<vehicle id="type1_37" type="type1" route="ws" depart="25.255943818717842" />
<vehicle id="type1_38" type="type1" route="ew" depart="26.023995317981967" />
<vehicle id="type1_39" type="type1" route="es" depart="27.15460852913698" />
<vehicle id="type1_40" type="type1" route="se" depart="27.403338169262472" />
<vehicle id="type1_41" type="type1" route="es" depart="27.408916619331197" />
<vehicle id="type1_42" type="type1" route="sw" depart="27.780341766502843" />
<vehicle id="type1_43" type="type1" route="wn" depart="28.00044818533567" />
<vehicle id="type1_44" type="type1" route="se" depart="28.56305855889787" />
<vehicle id="type1_45" type="type1" route="ew" depart="30.080833470128603" />
<vehicle id="type1_46" type="type1" route="en" depart="30.804539902544548" />
<vehicle id="type1_47" type="type1" route="ws" depart="31.002090650061938" />
<vehicle id="type1_48" type="type1" route="wn" depart="31.213813531292782" />
<vehicle id="type1_49" type="type1" route="wn" depart="32.239856729947846" />
<vehicle id="type1_50" type="type1" route="es" depart="32.59320813451725" />
<vehicle id="emv_1" type="rescue" route="es" depart="32.95916799862355" />
<vehicle id="type1_51" type="type1" route="ws" depart="33.20144518578813" />
<vehicle id="type1_52" type="type1" route="ew" depart="33.75165815638194" />
<vehicle id="type1_53" type="type1" route="nw" depart="35.768431162994936" />
<vehicle id="type1_54" type="type1" route="ws" depart="36.766314722898834" />
<vehicle id="type1_55" type="type1" route="sn" depart="36.89201014785842" />
<vehicle id="type1_56" type="type1" route="ws" depart="37.02933436140253" />
<vehicle id="type1_57" type="type1" route="sw" depart="38.40971202548566" />
<vehicle id="type1_58" type="type1" route="we" depart="39.25027605962524" />
<vehicle id="type1_59" type="type1" route="sw" depart="40.26196182839487" />
<vehicle id="type1_60" type="type1" route="en" depart="40.31311303143928" />
<vehicle id="type1_61" type="type1" route="ns" depart="41.11892438441692" />
<vehicle id="emv_2" type="rescue" route="en" depart="41.335325765866386" />
<vehicle id="type1_62" type="type1" route="we" depart="41.37139965396516" />
<vehicle id="type1_63" type="type1" route="ne" depart="41.430644823431706" />
<vehicle id="type1_64" type="type1" route="ew" depart="41.711735800111065" />
<vehicle id="type1_65" type="type1" route="ws" depart="43.69830473023029" />
<vehicle id="type1_66" type="type1" route="se" depart="43.76660769176827" />
<vehicle id="type1_67" type="type1" route="ew" depart="43.89538158742967" />
<vehicle id="type1_68" type="type1" route="ne" depart="44.013883087451816" />
<vehicle id="type1_69" type="type1" route="ws" depart="46.30712477008159" />
<vehicle id="type1_70" type="type1" route="ew" depart="46.50999467097687" />
<vehicle id="type1_71" type="type1" route="se" depart="46.5918822180015" />
<vehicle id="type1_72" type="type1" route="sw" depart="47.036240453093846" />
<vehicle id="type1_73" type="type1" route="en" depart="47.537775106408176" />
<vehicle id="type1_74" type="type1" route="es" depart="48.67918699652034" />
<vehicle id="type1_75" type="type1" route="en" depart="50.29413147717164" />
<vehicle id="type1_76" type="type1" route="es" depart="50.9087743937103" />
<vehicle id="type1_77" type="type1" route="ws" depart="52.05598949485365" />
<vehicle id="type1_78" type="type1" route="se" depart="52.0818557545074" />
<vehicle id="type1_79" type="type1" route="sw" depart="52.536241152283495" />
<vehicle id="type1_80" type="type1" route="ws" depart="52.77375355469874" />
<vehicle id="type1_81" type="type1" route="sw" depart="53.21941585444247" />
<vehicle id="type1_82" type="type1" route="ew" depart="53.675114789513636" />
<vehicle id="type1_83" type="type1" route="wn" depart="56.31367542163904" />
<vehicle id="type1_84" type="type1" route="sn" depart="60.23655386090028" />
<vehicle id="emv_3" type="rescue" route="we" depart="60.91414516797833" />
<vehicle id="type1_85" type="type1" route="nw" depart="60.93203966717166" />
<vehicle id="type1_86" type="type1" route="sw" depart="61.272541734904514" />
<vehicle id="type1_87" type="type1" route="ns" depart="63.81689174425719" />
<vehicle id="type1_88" type="type1" route="en" depart="64.38565400673004" />
<vehicle id="type1_89" type="type1" route="nw" depart="64.90056302511469" />
<vehicle id="type1_90" type="type1" route="wn" depart="65.55109038650792" />
<vehicle id="type1_91" type="type1" route="es" depart="65.73376497088388" />
<vehicle id="type1_92" type="type1" route="se" depart="66.74217907229342" />
<vehicle id="type1_93" type="type1" route="en" depart="66.95369511385032" />
<vehicle id="type1_94" type="type1" route="ne" depart="67.11784036671999" />
<vehicle id="emv_4" type="rescue" route="wn" depart="67.30761110259427" />
<vehicle id="type1_95" type="type1" route="ws" depart="67.49839122965747" />
<vehicle id="type1_96" type="type1" route="nw" depart="67.90027370221956" />
<vehicle id="type1_97" type="type1" route="se" depart="68.07367398533312" />
<vehicle id="type1_98" type="type1" route="we" depart="68.327848490787" />
<vehicle id="type1_99" type="type1" route="wn" depart="68.66513606624943" />
<vehicle id="type1_100" type="type1" route="ns" depart="68.71018015845809" />
<vehicle id="type1_101" type="type1" route="sn" depart="69.48853420168689" />
<vehicle id="type1_102" type="type1" route="nw" depart="70.38487818145681" />
<vehicle id="type1_103" type="type1" route="ws" depart="70.43383369249413" />
<vehicle id="type1_104" type="type1" route="wn" depart="70.4711834819356" />
<vehicle id="type1_105" type="type1" route="se" depart="70.59616774480395" />
<vehicle id="type1_106" type="type1" route="wn" depart="70.67308565133311" />
<vehicle id="type1_107" type="type1" route="es" depart="70.86291014317638" />
<vehicle id="type1_108" type="type1" route="ns" depart="72.09988376499591" />
<vehicle id="type1_109" type="type1" route="nw" depart="72.40207533573304" />
<vehicle id="type1_110" type="type1" route="sn" depart="72.43396647520586" />
<vehicle id="type1_111" type="type1" route="ws" depart="74.85720522760832" />
<vehicle id="type1_112" type="type1" route="nw" depart="75.00782811062119" />
<vehicle id="type1_113" type="type1" route="nw" depart="75.155148815472" />
<vehicle id="type1_114" type="type1" route="ns" depart="75.90194955342548" />
<vehicle id="type1_115" type="type1" route="ws" depart="76.16596837220908" />
<vehicle id="type1_116" type="type1" route="es" depart="76.28813949631756" />
<vehicle id="type1_117" type="type1" route="wn" depart="77.07589862159139" />
<vehicle id="type1_118" type="type1" route="sw" depart="77.8979066283056" />
<vehicle id="type1_119" type="type1" route="wn" depart="79.46813234797865" />
<vehicle id="type1_120" type="type1" route="ew" depart="80.55573443660361" />
<vehicle id="type1_121" type="type1" route="wn" depart="80.76349242903763" />
<vehicle id="type1_122" type="type1" route="ns" depart="80.94861708092004" />
<vehicle id="type1_123" type="type1" route="sw" depart="81.3818461319438" />
<vehicle id="type1_124" type="type1" route="se" depart="82.81735749483319" />
<vehicle id="type1_125" type="type1" route="nw" depart="83.69967060526822" />
<vehicle id="type1_126" type="type1" route="nw" depart="83.90290596576882" />
<vehicle id="type1_127" type="type1" route="ns" depart="84.88316342499313" />
<vehicle id="type1_128" type="type1" route="wn" depart="85.25776439936199" />
<vehicle id="type1_129" type="type1" route="ws" depart="85.28896851909953" />
<vehicle id="type1_130" type="type1" route="nw" depart="85.36838794463424" />
<vehicle id="type1_131" type="type1" route="ns" depart="86.0835742025858" />
<vehicle id="type1_132" type="type1" route="we" depart="87.23335338992719" />
<vehicle id="type1_133" type="type1" route="nw" depart="87.37024854962581" />
<vehicle id="type1_134" type="type1" route="wn" depart="87.4499647868373" />
<vehicle id="type1_135" type="type1" route="ne" depart="88.10967301983463" />
<vehicle id="type1_136" type="type1" route="es" depart="88.72568099140318" />
<vehicle id="type1_137" type="type1" route="we" depart="89.31973450088073" />
<vehicle id="type1_138" type="type1" route="we" depart="90.9817427617484" />
<vehicle id="type1_139" type="type1" route="nw" depart="91.26878053273472" />
<vehicle id="type1_140" type="type1" route="nw" depart="91.52528970564029" />
<vehicle id="type1_141" type="type1" route="ne" depart="91.82174729472095" />
<vehicle id="type1_142" type="type1" route="sw" depart="91.83866860683105" />
<vehicle id="type1_143" type="type1" route="en" depart="91.9693486623381" />
<vehicle id="type1_144" type="type1" route="we" depart="92.88755021874589" />
<vehicle id="type1_145" type="type1" route="we" depart="93.02901742229162" />
<vehicle id="type1_146" type="type1" route="ne" depart="93.61716015703749" />
<vehicle id="type1_147" type="type1" route="en" depart="93.70857528442734" />
<vehicle id="type1_148" type="type1" route="nw" depart="95.35402821228362" />
<vehicle id="type1_149" type="type1" route="es" depart="96.18090420978146" />
<vehicle id="type1_150" type="type1" route="ne" depart="97.1708792003956" />
<vehicle id="type1_151" type="type1" route="sn" depart="97.55892741432449" />
<vehicle id="type1_152" type="type1" route="nw" depart="98.87869509483511" />
<vehicle id="type1_153" type="type1" route="en" depart="98.98888944841659" />
<vehicle id="type1_154" type="type1" route="en" depart="99.07856194573161" />
<vehicle id="type1_155" type="type1" route="ws" depart="100.96873566039464" />
<vehicle id="type1_156" type="type1" route="es" depart="102.4397400671014" />
<vehicle id="type1_157" type="type1" route="sn" depart="102.5784075948837" />
<vehicle id="type1_158" type="type1" route="nw" depart="102.75404892416202" />
<vehicle id="type1_159" type="type1" route="wn" depart="103.35673568590866" />
<vehicle id="type1_160" type="type1" route="wn" depart="103.99451852763336" />
<vehicle id="type1_161" type="type1" route="es" depart="104.1527256099422" />
<vehicle id="type1_162" type="type1" route="wn" depart="105.1396965434828" />
<vehicle id="type1_163" type="type1" route="ew" depart="105.4598431730785" />
<vehicle id="type1_164" type="type1" route="nw" depart="106.03186291833859" />
<vehicle id="type1_165" type="type1" route="en" depart="107.22508704526997" />
<vehicle id="emv_5" type="rescue" route="we" depart="107.62604754431497" />
<vehicle id="type1_166" type="type1" route="ws" depart="107.70360723029155" />
<vehicle id="type1_167" type="type1" route="ws" depart="108.7152874533853" />
<vehicle id="type1_168" type="type1" route="ws" depart="109.58570566347724" />
<vehicle id="type1_169" type="type1" route="nw" depart="110.74117264868737" />
<vehicle id="type1_170" type="type1" route="wn" depart="111.19930581284375" />
<vehicle id="type1_171" type="type1" route="nw" depart="112.95231143670674" />
<vehicle id="emv_6" type="rescue" route="wn" depart="112.95427144995116" />
<vehicle id="type1_172" type="type1" route="ew" depart="113.30466273532294" />
<vehicle id="emv_7" type="rescue" route="nw" depart="116.53659318713167" />
<vehicle id="type1_173" type="type1" route="ns" depart="117.10003305684126" />
<vehicle id="type1_174" type="type1" route="en" depart="117.22947692628641" />
<vehicle id="type1_175" type="type1" route="se" depart="118.28966816245665" />
<vehicle id="type1_176" type="type1" route="we" depart="119.1503288227273" />
<vehicle id="type1_177" type="type1" route="ns" depart="119.31424473696309" />
<vehicle id="type1_178" type="type1" route="en" depart="119.77219902700115" />
<vehicle id="type1_179" type="type1" route="sn" depart="119.86292840493947" />
<vehicle id="type1_180" type="type1" route="ne" depart="119.87813980063984" />
<vehicle id="type1_181" type="type1" route="ws" depart="120.85704367949667" />
<vehicle id="type1_182" type="type1" route="en" depart="121.21716849557718" />
<vehicle id="type1_183" type="type1" route="ns" depart="123.00809453894614" />
<vehicle id="type1_184" type="type1" route="en" depart="123.06385030160037" />
<vehicle id="type1_185" type="type1" route="sw" depart="123.55667266625332" />
<vehicle id="type1_186" type="type1" route="ne" depart="123.6568621288746" />
<vehicle id="type1_187" type="type1" route="es" depart="123.83606816745456" />
<vehicle id="type1_188" type="type1" route="en" depart="124.24441391725914" />
<vehicle id="type1_189" type="type1" route="sw" depart="125.21586788395909" />
<vehicle id="type1_190" type="type1" route="we" depart="126.98249964454509" />
<vehicle id="type1_191" type="type1" route="ws" depart="127.58129085612903" />
<vehicle id="type1_192" type="type1" route="ew" depart="128.36292411854802" />
<vehicle id="type1_193" type="type1" route="ws" depart="128.3957517750718" />
<vehicle id="type1_194" type="type1" route="es" depart="128.71476162888183" />
<vehicle id="type1_195" type="type1" route="sn" depart="129.2558515584126" />
<vehicle id="type1_196" type="type1" route="sn" depart="129.38706081373795" />
<vehicle id="type1_197" type="type1" route="ne" depart="129.58022717264726" />
<vehicle id="type1_198" type="type1" route="sn" depart="130.81049320165215" />
<vehicle id="type1_199" type="type1" route="es" depart="131.39621044103936" />
<vehicle id="type1_200" type="type1" route="es" depart="131.76134723226644" />
<vehicle id="type1_201" type="type1" route="es" depart="131.79320613617065" />
<vehicle id="type1_202" type="type1" route="sw" depart="133.13582927574373" />
<vehicle id="type1_203" type="type1" route="es" depart="133.86068915002312" />
<vehicle id="type1_204" type="type1" route="en" depart="134.29469808795247" />
<vehicle id="type1_205" type="type1" route="nw" depart="135.15096392552175" />
<vehicle id="type1_206" type="type1" route="sn" depart="136.67907845563101" />
<vehicle id="emv_8" type="rescue" route="ne" depart="136.71587036141827" />
<vehicle id="type1_207" type="type1" route="sw" depart="137.4097213985366" />
<vehicle id="type1_208" type="type1" route="we" depart="138.74011995092815" />
<vehicle id="type1_209" type="type1" route="sw" depart="139.07778349439624" />
<vehicle id="type1_210" type="type1" route="ew" depart="140.31276396613032" />
<vehicle id="type1_211" type="type1" route="en" depart="140.89853684909184" />
<vehicle id="type1_212" type="type1" route="ew" depart="140.91854386321663" />
<vehicle id="type1_213" type="type1" route="ws" depart="142.68508795976055" />
<vehicle id="type1_214" type="type1" route="ew" depart="143.50508737421652" />
<vehicle id="type1_215" type="type1" route="en" depart="143.6437487747743" />
<vehicle id="type1_216" type="type1" route="ne" depart="143.65589337653026" />
<vehicle id="type1_217" type="type1" route="en" depart="143.72984886192577" />
<vehicle id="type1_218" type="type1" route="ne" depart="143.73867694870688" />
<vehicle id="type1_219" type="type1" route="ws" depart="144.0337142896226" />
<vehicle id="type1_220" type="type1" route="ne" depart="144.12167670338582" />
<vehicle id="type1_221" type="type1" route="sw" depart="144.2451457262002" />
<vehicle id="type1_222" type="type1" route="wn" depart="146.91069665825043" />
<vehicle id="type1_223" type="type1" route="we" depart="148.30448782470225" />
<vehicle id="type1_224" type="type1" route="wn" depart="148.47029878835588" />
<vehicle id="type1_225" type="type1" route="en" depart="148.5928270561411" />
<vehicle id="type1_226" type="type1" route="en" depart="149.60726568102515" />
<vehicle id="type1_227" type="type1" route="es" depart="150.086216666349" />
<vehicle id="type1_228" type="type1" route="sw" depart="150.58054429396407" />
<vehicle id="type1_229" type="type1" route="se" depart="150.98154869498543" />
<vehicle id="type1_230" type="type1" route="es" depart="151.90387694361323" />
<vehicle id="type1_231" type="type1" route="sn" depart="152.05589027716567" />
<vehicle id="type1_232" type="type1" route="nw" depart="152.60574824202942" />
<vehicle id="type1_233" type="type1" route="sw" depart="153.6480898610217" />
<vehicle id="type1_234" type="type1" route="ew" depart="155.01439042793797" />
<vehicle id="type1_235" type="type1" route="sw" depart="155.88925955759765" />
<vehicle id="type1_236" type="type1" route="en" depart="156.13220581727973" />
<vehicle id="type1_237" type="type1" route="en" depart="156.23355542223499" />
<vehicle id="type1_238" type="type1" route="es" depart="156.32176411925408" />
<vehicle id="type1_239" type="type1" route="ws" depart="157.32936157615723" />
<vehicle id="type1_240" type="type1" route="es" depart="157.33627918781968" />
<vehicle id="type1_241" type="type1" route="se" depart="157.9518415976817" />
<vehicle id="type1_242" type="type1" route="sw" depart="159.1930913974092" />
<vehicle id="type1_243" type="type1" route="ws" depart="159.21059954679848" />
<vehicle id="type1_244" type="type1" route="wn" depart="160.3046075244385" />
<vehicle id="type1_245" type="type1" route="ws" depart="160.7347100542669" />
<vehicle id="type1_246" type="type1" route="se" depart="162.5495895079323" />
<vehicle id="type1_247" type="type1" route="en" depart="162.884103305713" />
<vehicle id="type1_248" type="type1" route="ns" depart="164.04010900499736" />
<vehicle id="type1_249" type="type1" route="ne" depart="165.19665960598755" />
<vehicle id="type1_250" type="type1" route="ns" depart="165.39199707107377" />
<vehicle id="type1_251" type="type1" route="wn" depart="165.63589942990083" />
<vehicle id="type1_252" type="type1" route="ns" depart="166.4837981692892" />
<vehicle id="type1_253" type="type1" route="ns" depart="167.96071157681786" />
<vehicle id="type1_254" type="type1" route="ns" depart="169.8392306227635" />
<vehicle id="type1_255" type="type1" route="se" depart="170.2878498333453" />
<vehicle id="type1_256" type="type1" route="en" depart="170.3929789977386" />
<vehicle id="emv_9" type="rescue" route="es" depart="170.4123662673014" />
<vehicle id="type1_257" type="type1" route="es" depart="171.87825439425328" />
<vehicle id="type1_258" type="type1" route="ns" depart="172.18858633504396" />
<vehicle id="type1_259" type="type1" route="we" depart="172.57662087749387" />
<vehicle id="type1_260" type="type1" route="nw" depart="172.91472749657933" />
<vehicle id="type1_261" type="type1" route="ew" depart="172.99760976370388" />
<vehicle id="type1_262" type="type1" route="ws" depart="173.06590389276272" />
<vehicle id="type1_263" type="type1" route="nw" depart="173.14530161844095" />
<vehicle id="type1_264" type="type1" route="ws" depart="173.29879108169578" />
<vehicle id="type1_265" type="type1" route="wn" depart="173.70906313482558" />
<vehicle id="type1_266" type="type1" route="ws" depart="174.40366468831158" />
<vehicle id="type1_267" type="type1" route="ne" depart="175.93435109715506" />
<vehicle id="type1_268" type="type1" route="es" depart="176.03034887378595" />
<vehicle id="type1_269" type="type1" route="se" depart="176.07663974447587" />
<vehicle id="emv_10" type="rescue" route="ws" depart="176.20485086594744" />
<vehicle id="type1_270" type="type1" route="es" depart="177.31820194765393" />
<vehicle id="emv_11" type="rescue" route="wn" depart="177.4668539138065" />
<vehicle id="emv_12" type="rescue" route="ws" depart="178.43178731904146" />
<vehicle id="type1_271" type="type1" route="ws" depart="178.45193529441102" />
<vehicle id="type1_272" type="type1" route="se" depart="178.9129349540974" />
<vehicle id="emv_13" type="rescue" route="ws" depart="179.90261496325417" />
<vehicle id="type1_273" type="type1" route="ns" depart="181.5376334925462" />
<vehicle id="type1_274" type="type1" route="ne" depart="181.62213333301912" />
<vehicle id="type1_275" type="type1" route="es" depart="182.79310993553943" />
<vehicle id="type1_276" type="type1" route="we" depart="183.42858301345288" />
<vehicle id="type1_277" type="type1" route="en" depart="185.05208712496835" />
<vehicle id="type1_278" type="type1" route="es" depart="185.81119002930396" />
<vehicle id="type1_279" type="type1" route="es" depart="186.21774794380275" />
<vehicle id="type1_280" type="type1" route="sn" depart="186.6208155842285" />
<vehicle id="type1_281" type="type1" route="se" depart="187.02590387554204" />
<vehicle id="type1_282" type="type1" route="ns" depart="187.33470216422032" />
<vehicle id="type1_283" type="type1" route="se" depart="188.90145687650184" />
<vehicle id="type1_284" type="type1" route="es" depart="189.46527069396018" />
<vehicle id="emv_14" type="rescue" route="ns" depart="189.78951228755724" />
<vehicle id="type1_285" type="type1" route="se" depart="190.20850574053034" />
<vehicle id="type1_286" type="type1" route="we" depart="190.52664001623938" />
<vehicle id="type1_287" type="type1" route="nw" depart="191.1533346366514" />
<vehicle id="type1_288" type="type1" route="es" depart="191.38783318846095" />
<vehicle id="type1_289" type="type1" route="wn" depart="191.7978253281675" />
<vehicle id="type1_290" type="type1" route="nw" depart="192.1794077460975" />
<vehicle id="type1_291" type="type1" route="es" depart="192.3126625205374" />
<vehicle id="type1_292" type="type1" route="ws" depart="192.61751601573573" />
<vehicle id="type1_293" type="type1" route="en" depart="192.890741508891" />
<vehicle id="type1_294" type="type1" route="wn" depart="195.14730672205928" />
<vehicle id="type1_295" type="type1" route="en" depart="195.24069321101396" />
<vehicle id="type1_296" type="type1" route="ne" depart="196.00836134097776" />
<vehicle id="type1_297" type="type1" route="nw" depart="196.06164425845608" />
<vehicle id="type1_298" type="type1" route="we" depart="197.46803522648423" />
<vehicle id="type1_299" type="type1" route="ws" depart="198.45986249602421" />
<vehicle id="type1_300" type="type1" route="sw" depart="198.5597790149623" />
<vehicle id="type1_301" type="type1" route="wn" depart="199.9638545065134" />
<vehicle id="type1_302" type="type1" route="se" depart="200.3717633089072" />
<vehicle id="type1_303" type="type1" route="en" depart="201.9079494668291" />
<vehicle id="type1_304" type="type1" route="en" depart="203.51834011843704" />
<vehicle id="type1_305" type="type1" route="se" depart="203.69100001154752" />
<vehicle id="type1_306" type="type1" route="sw" depart="204.53243407601911" />
<vehicle id="type1_307" type="type1" route="sw" depart="205.16558200019102" />
<vehicle id="type1_308" type="type1" route="nw" depart="205.51612348193868" />
<vehicle id="type1_309" type="type1" route="sn" depart="206.42807109574554" />
<vehicle id="type1_310" type="type1" route="es" depart="206.86381909381706" />
<vehicle id="emv_15" type="rescue" route="se" depart="206.8740532324638" />
<vehicle id="type1_311" type="type1" route="sn" depart="208.00407824045402" />
<vehicle id="type1_312" type="type1" route="ns" depart="208.00919743623678" />
<vehicle id="type1_313" type="type1" route="ew" depart="208.21806607709757" />
<vehicle id="type1_314" type="type1" route="se" depart="208.27782923450363" />
<vehicle id="type1_315" type="type1" route="ne" depart="209.16449555208587" />
<vehicle id="type1_316" type="type1" route="ne" depart="209.5826246342954" />
<vehicle id="type1_317" type="type1" route="en" depart="209.84259629178604" />
<vehicle id="type1_318" type="type1" route="ws" depart="210.0811116983443" />
<vehicle id="type1_319" type="type1" route="nw" depart="210.2404230124408" />
<vehicle id="type1_320" type="type1" route="es" depart="210.46270645510958" />
<vehicle id="type1_321" type="type1" route="sw" depart="211.29644991316198" />
<vehicle id="type1_322" type="type1" route="sw" depart="211.9883925533068" />
<vehicle id="type1_323" type="type1" route="se" depart="212.3023841196767" />
<vehicle id="type1_324" type="type1" route="sw" depart="212.59902624965417" />
<vehicle id="type1_325" type="type1" route="ws" depart="213.27682304543092" />
<vehicle id="type1_326" type="type1" route="we" depart="215.07832049179586" />
<vehicle id="type1_327" type="type1" route="sw" depart="215.72507129740788" />
<vehicle id="type1_328" type="type1" route="se" depart="215.82373385303086" />
<vehicle id="type1_329" type="type1" route="wn" depart="216.47098430376067" />
<vehicle id="type1_330" type="type1" route="ne" depart="216.47162709762546" />
<vehicle id="type1_331" type="type1" route="ns" depart="216.91065006596523" />
<vehicle id="type1_332" type="type1" route="es" depart="217.74431668616822" />
<vehicle id="type1_333" type="type1" route="wn" depart="218.68089346325306" />
<vehicle id="type1_334" type="type1" route="en" depart="219.33550591282523" />
<vehicle id="type1_335" type="type1" route="we" depart="220.93933868507412" />
<vehicle id="type1_336" type="type1" route="ns" depart="221.81416757377522" />
<vehicle id="type1_337" type="type1" route="en" depart="222.1587403756612" />
<vehicle id="type1_338" type="type1" route="sw" depart="222.43515249842125" />
<vehicle id="type1_339" type="type1" route="nw" depart="222.67596885267497" />
<vehicle id="type1_340" type="type1" route="se" depart="224.55256099185328" />
<vehicle id="type1_341" type="type1" route="nw" depart="226.22400853277827" />
<vehicle id="type1_342" type="type1" route="sn" depart="226.78952117930007" />
<vehicle id="type1_343" type="type1" route="sn" depart="227.22867323691395" />
<vehicle id="type1_344" type="type1" route="nw" depart="227.40681071796303" />
<vehicle id="type1_345" type="type1" route="en" depart="227.4292857133454" />
<vehicle id="type1_346" type="type1" route="we" depart="227.4539922297908" />
<vehicle id="type1_347" type="type1" route="es" depart="229.30705120237732" />
<vehicle id="type1_348" type="type1" route="ws" depart="230.64832353146727" />
<vehicle id="type1_349" type="type1" route="nw" depart="232.32864871987115" />
<vehicle id="type1_350" type="type1" route="ne" depart="232.33919416931565" />