<?xml version="1.0" encoding="UTF-8"?>

<!-- generated on 2025-02-11 16:04:42 by Eclipse SUMO netconvert Version 1.21.0
<netconvertConfiguration xmlns:xsi="http://www.w3.org/2001/XMLSchema-instance" xsi:noNamespaceSchemaLocation="http://sumo.dlr.de/xsd/netconvertConfiguration.xsd">

    <input>
        <node-files value="nodes.nod.xml"/>
        <edge-files value="edges.edg.xml"/>
        <tllogic-files value="tls.add.xml"/>
    </input>

    <output>
        <output-file value="net.net.xml"/>
    </output>

    <pedestrian>
        <crossings.guess value="True"/>
    </pedestrian>

</netconvertConfiguration>
-->

<net version="1.20" junctionCornerDetail="5" walkingareas="true" limitTurnSpeed="5.50" xmlns:xsi="http://www.w3.org/2001/XMLSchema-instance" xsi:noNamespaceSchemaLocation="http://sumo.dlr.de/xsd/net_file.xsd">

    <location netOffset="500.00,500.00" convBoundary="0.00,0.00,1000.00,1000.00" origBoundary="-500.00,-500.00,500.00,500.00" projParameter="!"/>

    <edge id=":0_0" function="internal">
        <lane id=":0_0_0" index="0" disallow="pedestrian" speed="8.10" length="9.48" shape="492.00,513.60 491.65,508.35 490.60,504.60 490.40,504.34"/>
    </edge>
    <edge id=":0_1" function="internal">
        <lane id=":0_1_0" index="0" disallow="pedestrian" speed="11.11" length="27.43" shape="495.20,513.60 495.70,504.98 496.80,498.61 497.90,492.94 498.40,486.40"/>
    </edge>
    <edge id=":0_2" function="internal">
        <lane id=":0_2_0" index="0" disallow="pedestrian" speed="10.36" length="20.47" shape="498.40,513.60 499.35,506.95 502.20,502.20 506.95,499.35 509.60,498.97"/>
    </edge>
    <edge id=":0_3" function="internal">
        <lane id=":0_3_0" index="0" disallow="pedestrian" speed="3.65" length="1.44" shape="498.40,513.60 499.20,512.40"/>
    </edge>
    <edge id=":0_16" function="internal">
        <lane id=":0_16_0" index="0" disallow="pedestrian" speed="8.10" length="5.09" shape="490.40,504.34 488.85,502.35 486.40,501.60"/>
    </edge>
    <edge id=":0_17" function="internal">
        <lane id=":0_17_0" index="0" disallow="pedestrian" speed="10.36" length="4.04" shape="509.60,498.97 513.60,498.40"/>
    </edge>
    <edge id=":0_18" function="internal">
        <lane id=":0_18_0" index="0" disallow="pedestrian" speed="3.65" length="3.23" shape="499.20,512.40 500.00,512.00 500.80,512.40 501.60,513.60"/>
    </edge>
    <edge id=":0_4" function="internal">
        <lane id=":0_4_0" index="0" disallow="pedestrian" speed="8.10" length="9.48" shape="513.60,508.00 508.35,508.35 504.60,509.40 504.34,509.60"/>
    </edge>
    <edge id=":0_5" function="internal">
        <lane id=":0_5_0" index="0" disallow="pedestrian" speed="11.11" length="27.43" shape="513.60,504.80 504.98,504.30 498.61,503.20 492.94,502.10 486.40,501.60"/>
    </edge>
    <edge id=":0_6" function="internal">
        <lane id=":0_6_0" index="0" disallow="pedestrian" speed="10.36" length="20.47" shape="513.60,501.60 506.95,500.65 502.20,497.80 499.35,493.05 498.97,490.40"/>
    </edge>
    <edge id=":0_7" function="internal">
        <lane id=":0_7_0" index="0" disallow="pedestrian" speed="3.65" length="1.44" shape="513.60,501.60 512.40,500.80"/>
    </edge>
    <edge id=":0_19" function="internal">
        <lane id=":0_19_0" index="0" disallow="pedestrian" speed="8.10" length="5.09" shape="504.34,509.60 502.35,511.15 501.60,513.60"/>
    </edge>
    <edge id=":0_20" function="internal">
        <lane id=":0_20_0" index="0" disallow="pedestrian" speed="10.36" length="4.04" shape="498.97,490.40 498.40,486.40"/>
    </edge>
    <edge id=":0_21" function="internal">
        <lane id=":0_21_0" index="0" disallow="pedestrian" speed="3.65" length="3.23" shape="512.40,500.80 512.00,500.00 512.40,499.20 513.60,498.40"/>
    </edge>
    <edge id=":0_8" function="internal">
        <lane id=":0_8_0" index="0" disallow="pedestrian" speed="8.10" length="9.48" shape="508.00,486.40 508.35,491.65 509.40,495.40 509.60,495.66"/>
    </edge>
    <edge id=":0_9" function="internal">
        <lane id=":0_9_0" index="0" disallow="pedestrian" speed="11.11" length="27.43" shape="504.80,486.40 504.30,495.02 503.20,501.39 502.10,507.06 501.60,513.60"/>
    </edge>
    <edge id=":0_10" function="internal">
        <lane id=":0_10_0" index="0" disallow="pedestrian" speed="10.36" length="20.47" shape="501.60,486.40 500.65,493.05 497.80,497.80 493.05,500.65 490.40,501.03"/>
    </edge>
    <edge id=":0_11" function="internal">
        <lane id=":0_11_0" index="0" disallow="pedestrian" speed="3.65" length="1.44" shape="501.60,486.40 500.80,487.60"/>
    </edge>
    <edge id=":0_22" function="internal">
        <lane id=":0_22_0" index="0" disallow="pedestrian" speed="8.10" length="5.09" shape="509.60,495.66 511.15,497.65 513.60,498.40"/>
    </edge>
    <edge id=":0_23" function="internal">
        <lane id=":0_23_0" index="0" disallow="pedestrian" speed="10.36" length="4.04" shape="490.40,501.03 486.40,501.60"/>
    </edge>
    <edge id=":0_24" function="internal">
        <lane id=":0_24_0" index="0" disallow="pedestrian" speed="3.65" length="3.23" shape="500.80,487.60 500.00,488.00 499.20,487.60 498.40,486.40"/>
    </edge>
    <edge id=":0_12" function="internal">
        <lane id=":0_12_0" index="0" disallow="pedestrian" speed="8.10" length="9.48" shape="486.40,492.00 491.65,491.65 495.40,490.60 495.66,490.40"/>
    </edge>
    <edge id=":0_13" function="internal">
        <lane id=":0_13_0" index="0" disallow="pedestrian" speed="11.11" length="27.43" shape="486.40,495.20 495.02,495.70 501.39,496.80 507.06,497.90 513.60,498.40"/>
    </edge>
    <edge id=":0_14" function="internal">
        <lane id=":0_14_0" index="0" disallow="pedestrian" speed="10.36" length="20.47" shape="486.40,498.40 493.05,499.35 497.80,502.20 500.65,506.95 501.03,509.60"/>
    </edge>
    <edge id=":0_15" function="internal">
        <lane id=":0_15_0" index="0" disallow="pedestrian" speed="3.65" length="1.44" shape="486.40,498.40 487.60,499.20"/>
    </edge>
    <edge id=":0_25" function="internal">
        <lane id=":0_25_0" index="0" disallow="pedestrian" speed="8.10" length="5.09" shape="495.66,490.40 497.65,488.85 498.40,486.40"/>
    </edge>
    <edge id=":0_26" function="internal">
        <lane id=":0_26_0" index="0" disallow="pedestrian" speed="10.36" length="4.04" shape="501.03,509.60 501.60,513.60"/>
    </edge>
    <edge id=":0_27" function="internal">
        <lane id=":0_27_0" index="0" disallow="pedestrian" speed="3.65" length="3.23" shape="487.60,499.20 488.00,500.00 487.60,500.80 486.40,501.60"/>
    </edge>
    <edge id=":0_c0" function="crossing" crossingEdges="no ni">
        <lane id=":0_c0_0" index="0" allow="pedestrian" speed="2.78" length="12.80" width="4.00" shape="503.20,511.60 490.40,511.60" outlineShape="503.20,513.60 490.40,513.60 490.29,510.42 490.18,509.60 490.40,509.60 503.20,509.60 505.75,510.63 504.36,511.38 503.49,512.38"/>
    </edge>
    <edge id=":0_c1" function="crossing" crossingEdges="eo ei">
        <lane id=":0_c1_0" index="0" allow="pedestrian" speed="2.78" length="12.80" width="4.00" shape="511.60,496.80 511.60,509.60" outlineShape="513.60,496.80 513.60,509.60 510.42,509.71 509.60,509.82 509.60,509.60 509.60,496.80 510.63,494.25 511.38,495.64 512.38,496.51"/>
    </edge>
    <edge id=":0_c2" function="crossing" crossingEdges="so si">
        <lane id=":0_c2_0" index="0" allow="pedestrian" speed="2.78" length="12.80" width="4.00" shape="496.80,488.40 509.60,488.40" outlineShape="496.80,486.40 509.60,486.40 509.71,489.58 509.82,490.40 509.60,490.40 496.80,490.40 494.25,489.37 495.64,488.62 496.51,487.62"/>
    </edge>
    <edge id=":0_c3" function="crossing" crossingEdges="wo wi">
        <lane id=":0_c3_0" index="0" allow="pedestrian" speed="2.78" length="12.80" width="4.00" shape="488.40,503.20 488.40,490.40" outlineShape="486.40,503.20 486.40,490.40 489.58,490.29 490.40,490.18 490.40,490.40 490.40,503.20 489.37,505.75 488.62,504.36 487.62,503.49"/>
    </edge>
    <edge id=":0_w0" function="walkingarea">
        <lane id=":0_w0_0" index="0" allow="pedestrian" speed="2.78" length="6.97" width="4.00" shape="486.40,503.20 486.40,505.20 488.40,513.60 490.40,513.60 490.29,510.42 489.96,507.82 489.40,505.80 488.62,504.36 487.62,503.49"/>
    </edge>
    <edge id=":0_w1" function="walkingarea">
        <lane id=":0_w1_0" index="0" allow="pedestrian" speed="2.78" length="6.97" width="4.00" shape="503.20,513.60 505.20,513.60 513.60,511.60 513.60,509.60 510.42,509.71 507.82,510.04 505.80,510.60 504.36,511.38 503.49,512.38"/>
    </edge>
    <edge id=":0_w2" function="walkingarea">
        <lane id=":0_w2_0" index="0" allow="pedestrian" speed="2.78" length="6.97" width="4.00" shape="513.60,496.80 513.60,494.80 511.60,486.40 509.60,486.40 509.71,489.58 510.04,492.18 510.60,494.20 511.38,495.64 512.38,496.51"/>
    </edge>
    <edge id=":0_w3" function="walkingarea">
        <lane id=":0_w3_0" index="0" allow="pedestrian" speed="2.78" length="6.97" width="4.00" shape="496.80,486.40 494.80,486.40 486.40,488.40 486.40,490.40 489.58,490.29 492.18,489.96 494.20,489.40 495.64,488.62 496.51,487.62"/>
    </edge>
    <edge id=":1_0" function="internal">
        <lane id=":1_0_0" index="0" disallow="pedestrian" speed="3.65" length="4.67" shape="501.60,1000.00 500.80,1001.20 500.00,1001.60 499.20,1001.20 498.40,1000.00"/>
    </edge>
    <edge id=":1_w0" function="walkingarea">
        <lane id=":1_w0_0" index="0" allow="pedestrian" speed="2.78" length="14.80" width="2.00" shape="490.40,1000.00 488.40,1000.00 505.20,1000.00 503.20,1000.00"/>
    </edge>
    <edge id=":2_0" function="internal">
        <lane id=":2_0_0" index="0" disallow="pedestrian" speed="3.65" length="4.67" shape="1000.00,498.40 1001.20,499.20 1001.60,500.00 1001.20,500.80 1000.00,501.60"/>
    </edge>
    <edge id=":2_w0" function="walkingarea">
        <lane id=":2_w0_0" index="0" allow="pedestrian" speed="2.78" length="14.80" width="2.00" shape="1000.00,509.60 1000.00,511.60 1000.00,494.80 1000.00,496.80"/>
    </edge>
    <edge id=":3_0" function="internal">
        <lane id=":3_0_0" index="0" disallow="pedestrian" speed="3.65" length="4.67" shape="498.40,0.00 499.20,-1.20 500.00,-1.60 500.80,-1.20 501.60,0.00"/>
    </edge>
    <edge id=":3_w0" function="walkingarea">
        <lane id=":3_w0_0" index="0" allow="pedestrian" speed="2.78" length="14.80" width="2.00" shape="509.60,0.00 511.60,0.00 494.80,0.00 496.80,0.00"/>
    </edge>
    <edge id=":4_0" function="internal">
        <lane id=":4_0_0" index="0" disallow="pedestrian" speed="3.65" length="4.67" shape="0.00,501.60 -1.20,500.80 -1.60,500.00 -1.20,499.20 0.00,498.40"/>
    </edge>
    <edge id=":4_w0" function="walkingarea">
        <lane id=":4_w0_0" index="0" allow="pedestrian" speed="2.78" length="14.80" width="2.00" shape="0.00,490.40 0.00,488.40 0.00,505.20 0.00,503.20"/>
    </edge>

    <edge id="ei" from="2" to="0" priority="2">
        <lane id="ei_0" index="0" allow="pedestrian" speed="11.11" length="486.40" width="2.00" shape="1000.00,510.60 513.60,510.60"/>
        <lane id="ei_1" index="1" disallow="pedestrian" speed="11.11" length="486.40" shape="1000.00,508.00 513.60,508.00"/>
        <lane id="ei_2" index="2" disallow="pedestrian" speed="11.11" length="486.40" shape="1000.00,504.80 513.60,504.80"/>
        <lane id="ei_3" index="3" disallow="pedestrian" speed="11.11" length="486.40" shape="1000.00,501.60 513.60,501.60"/>
    </edge>
    <edge id="eo" from="0" to="2" priority="1">
        <lane id="eo_0" index="0" allow="pedestrian" speed="11.11" length="486.40" width="2.00" shape="513.60,495.80 1000.00,495.80"/>
        <lane id="eo_1" index="1" disallow="pedestrian" speed="11.11" length="486.40" shape="513.60,498.40 1000.00,498.40"/>
    </edge>
    <edge id="ni" from="1" to="0" priority="2">
        <lane id="ni_0" index="0" allow="pedestrian" speed="11.11" length="486.40" width="2.00" shape="489.40,1000.00 489.40,513.60"/>
        <lane id="ni_1" index="1" disallow="pedestrian" speed="11.11" length="486.40" shape="492.00,1000.00 492.00,513.60"/>
        <lane id="ni_2" index="2" disallow="pedestrian" speed="11.11" length="486.40" shape="495.20,1000.00 495.20,513.60"/>
        <lane id="ni_3" index="3" disallow="pedestrian" speed="11.11" length="486.40" shape="498.40,1000.00 498.40,513.60"/>
    </edge>
    <edge id="no" from="0" to="1" priority="1">
        <lane id="no_0" index="0" allow="pedestrian" speed="11.11" length="486.40" width="2.00" shape="504.20,513.60 504.20,1000.00"/>
        <lane id="no_1" index="1" disallow="pedestrian" speed="11.11" length="486.40" shape="501.60,513.60 501.60,1000.00"/>
    </edge>
    <edge id="si" from="3" to="0" priority="2">
        <lane id="si_0" index="0" allow="pedestrian" speed="11.11" length="486.40" width="2.00" shape="510.60,0.00 510.60,486.40"/>
        <lane id="si_1" index="1" disallow="pedestrian" speed="11.11" length="486.40" shape="508.00,0.00 508.00,486.40"/>
        <lane id="si_2" index="2" disallow="pedestrian" speed="11.11" length="486.40" shape="504.80,0.00 504.80,486.40"/>
        <lane id="si_3" index="3" disallow="pedestrian" speed="11.11" length="486.40" shape="501.60,0.00 501.60,486.40"/>
    </edge>
    <edge id="so" from="0" to="3" priority="1">
        <lane id="so_0" index="0" allow="pedestrian" speed="11.11" length="486.40" width="2.00" shape="495.80,486.40 495.80,0.00"/>
        <lane id="so_1" index="1" disallow="pedestrian" speed="11.11" length="486.40" shape="498.40,486.40 498.40,0.00"/>
    </edge>
    <edge id="wi" from="4" to="0" priority="2">
        <lane id="wi_0" index="0" allow="pedestrian" speed="11.11" length="486.40" width="2.00" shape="0.00,489.40 486.40,489.40"/>
        <lane id="wi_1" index="1" disallow="pedestrian" speed="11.11" length="486.40" shape="0.00,492.00 486.40,492.00"/>
        <lane id="wi_2" index="2" disallow="pedestrian" speed="11.11" length="486.40" shape="0.00,495.20 486.40,495.20"/>
        <lane id="wi_3" index="3" disallow="pedestrian" speed="11.11" length="486.40" shape="0.00,498.40 486.40,498.40"/>
    </edge>
    <edge id="wo" from="0" to="4" priority="1">
        <lane id="wo_0" index="0" allow="pedestrian" speed="11.11" length="486.40" width="2.00" shape="486.40,504.20 0.00,504.20"/>
        <lane id="wo_1" index="1" disallow="pedestrian" speed="11.11" length="486.40" shape="486.40,501.60 0.00,501.60"/>
    </edge>

    <tlLogic id="0" type="static" programID="0" offset="0">
        <phase duration="100" state="rrrrrrrrrrrrrrrryyyy"/>
        <phase duration="100" state="rrrrrrrrrrrrrrrryyyg"/>
        <phase duration="100" state="rrrrrrrrrrrrrrrryygy"/>
        <phase duration="100" state="rrrrrrrrrrrrrrrryygg"/>
        <phase duration="100" state="rrrrrrrrrrrrrrrrygyy"/>
        <phase duration="100" state="rrrrrrrrrrrrrrrrygyg"/>
        <phase duration="100" state="rrrrrrrrrrrrrrrryggy"/>
        <phase duration="100" state="rrrrrrrrrrrrrrrrgyyy"/>
        <phase duration="100" state="rrrrrrrrrrrrrrrrgyyg"/>
        <phase duration="100" state="rrrrrrrrrrrrrrrrgygy"/>
        <phase duration="100" state="rrrrrrrrrrrrrrrrggyy"/>
        <phase duration="100" state="rrrrrrrrrrrrrrrrgggg"/>
        <phase duration="100" state="rrrrrrrrrryyyrrryyrr"/>
        <phase duration="100" state="rrrrrrrrrryyyrrrygrr"/>
        <phase duration="100" state="rrrrrrrrrryyyrrrgyrr"/>
        <phase duration="100" state="rrrrrrrrrryyyrrrggrr"/>
        <phase duration="100" state="rrrrrrrrrryygrrryyrr"/>
        <phase duration="100" state="rrrrrrrrrryygrrrygrr"/>
        <phase duration="100" state="rrrrrrrrrryygrrrgyrr"/>
        <phase duration="100" state="rrrrrrrrrrgggrrryyrr"/>
        <phase duration="100" state="rrrrrrrrrrgggrrrygrr"/>
        <phase duration="100" state="rrrrrrrrrrgggrrrgyrr"/>
        <phase duration="100" state="rrrrrrrrrrgggrrrggrr"/>
        <phase duration="100" state="rrrrrrrrryyyyrrrryrr"/>
        <phase duration="100" state="rrrrrrrrryyyyrrrrgrr"/>
        <phase duration="100" state="rrrrrrrrryyygrrrryrr"/>
        <phase duration="100" state="rrrrrrrrryyygrrrrgrr"/>
        <phase duration="100" state="rrrrrrrrrygggrrrryrr"/>
        <phase duration="100" state="rrrrrrrrrygggrrrrgrr"/>
        <phase duration="100" state="rrrrrrrrrgyyyrrrryrr"/>
        <phase duration="100" state="rrrrrrrrrgyyyrrrrgrr"/>
        <phase duration="100" state="rrrrrrrrrggggrrrryrr"/>
        <phase duration="100" state="rrrrrrrrrggggrrrrgrr"/>
        <phase duration="100" state="rrrrrrrryryyyrrryrrr"/>
        <phase duration="100" state="rrrrrrrryryyyrrrgrrr"/>
        <phase duration="100" state="rrrrrrrryryygrrryrrr"/>
        <phase duration="100" state="rrrrrrrryryygrrrgrrr"/>
        <phase duration="100" state="rrrrrrrryrgggrrryrrr"/>
        <phase duration="100" state="rrrrrrrryrgggrrrgrrr"/>
        <phase duration="100" state="rrrrrrrryyyyyrrrrrrr"/>
        <phase duration="100" state="rrrrrrrryyyygrrrrrrr"/>
        <phase duration="100" state="rrrrrrrryygggrrrrrrr"/>
        <phase duration="100" state="rrrrrrrrygyyyrrrrrrr"/>
        <phase duration="100" state="rrrrrrrryggggrrrrrrr"/>
        <phase duration="100" state="rrrrrrrrgryyyrrryrrr"/>
        <phase duration="100" state="rrrrrrrrgryyyrrrgrrr"/>
        <phase duration="100" state="rrrrrrrrgryygrrryrrr"/>
        <phase duration="100" state="rrrrrrrrgryygrrrgrrr"/>
        <phase duration="100" state="rrrrrrrrgrgggrrryrrr"/>
        <phase duration="100" state="rrrrrrrrgrgggrrrgrrr"/>
        <phase duration="100" state="rrrrrrrrgyyyyrrrrrrr"/>
        <phase duration="100" state="rrrrrrrrgyyygrrrrrrr"/>
        <phase duration="100" state="rrrrrrrrgygggrrrrrrr"/>
        <phase duration="100" state="rrrrrrrrggyyyrrrrrrr"/>
        <phase duration="100" state="rrrrrrrrgggggrrrrrrr"/>
        <phase duration="100" state="rrrrrryyyrrrrrrryrry"/>
        <phase duration="100" state="rrrrrryyyrrrrrrryrrg"/>
        <phase duration="100" state="rrrrrryyyrrrrrrrgrry"/>
        <phase duration="100" state="rrrrrryyyrrrrrrrgrrg"/>
        <phase duration="100" state="rrrrrryygrrrrrrryrry"/>
        <phase duration="100" state="rrrrrryygrrrrrrryrrg"/>
        <phase duration="100" state="rrrrrryygrrrrrrrgrry"/>
        <phase duration="100" state="rrrrrrgggrrrrrrryrry"/>
        <phase duration="100" state="rrrrrrgggrrrrrrryrrg"/>
        <phase duration="100" state="rrrrrrgggrrrrrrrgrry"/>
        <phase duration="100" state="rrrrrrgggrrrrrrrgrrg"/>
        <phase duration="100" state="rrrrryrrrrrrryrryryr"/>
        <phase duration="100" state="rrrrryrrrrrrryrryrgr"/>
        <phase duration="100" state="rrrrryrrrrrrryrrgryr"/>
        <phase duration="100" state="rrrrryrrrrrrryrrgrgr"/>
        <phase duration="100" state="rrrrryrrrrrrrgrryryr"/>
        <phase duration="100" state="rrrrryrrrrrrrgrryrgr"/>
        <phase duration="100" state="rrrrryrrrrrryyrryrrr"/>
        <phase duration="100" state="rrrrryrrrrrryyrrgrrr"/>
        <phase duration="100" state="rrrrryrrrrrrygrryrrr"/>
        <phase duration="100" state="rrrrryrrrrrrgyrryrrr"/>
        <phase duration="100" state="rrrrryrrrrrrgyrrgrrr"/>
        <phase duration="100" state="rrrrryrrrrrrggrryrrr"/>
        <phase duration="100" state="rrrrryrryrrryrrryrrr"/>
        <phase duration="100" state="rrrrryrryrrryrrrgrrr"/>
        <phase duration="100" state="rrrrryrryrrrgrrryrrr"/>
        <phase duration="100" state="rrrrryrryrrrgrrrgrrr"/>
        <phase duration="100" state="rrrrryrrgrrryrrryrrr"/>
        <phase duration="100" state="rrrrryrrgrrryrrrgrrr"/>
        <phase duration="100" state="rrrrryrrgrrrgrrryrrr"/>
        <phase duration="100" state="rrrrryrrgrrrgrrrgrrr"/>
        <phase duration="100" state="rrrrryyyyrrrrrrryrrr"/>
        <phase duration="100" state="rrrrryyyyrrrrrrrgrrr"/>
        <phase duration="100" state="rrrrryyygrrrrrrryrrr"/>
        <phase duration="100" state="rrrrryyygrrrrrrrgrrr"/>
        <phase duration="100" state="rrrrrygggrrrrrrryrrr"/>
        <phase duration="100" state="rrrrrygggrrrrrrrgrrr"/>
        <phase duration="100" state="rrrrrgrrrrrrryrryryr"/>
        <phase duration="100" state="rrrrrgrrrrrrryrrgryr"/>
        <phase duration="100" state="rrrrrgrrrrrrrgrryryr"/>
        <phase duration="100" state="rrrrrgrrrrrrrgrryrgr"/>
        <phase duration="100" state="rrrrrgrrrrrrrgrrgryr"/>
        <phase duration="100" state="rrrrrgrrrrrrrgrrgrgr"/>
        <phase duration="100" state="rrrrrgrrrrrryyrryrrr"/>
        <phase duration="100" state="rrrrrgrrrrrryyrrgrrr"/>
        <phase duration="100" state="rrrrrgrrrrrrygrryrrr"/>
        <phase duration="100" state="rrrrrgrrrrrrygrrgrrr"/>
        <phase duration="100" state="rrrrrgrrrrrrgyrryrrr"/>
        <phase duration="100" state="rrrrrgrrrrrrgyrrgrrr"/>
        <phase duration="100" state="rrrrrgrrrrrrggrryrrr"/>
        <phase duration="100" state="rrrrrgrrrrrrggrrgrrr"/>
        <phase duration="100" state="rrrrrgrryrrryrrryrrr"/>
        <phase duration="100" state="rrrrrgrryrrryrrrgrrr"/>
        <phase duration="100" state="rrrrrgrryrrrgrrryrrr"/>
        <phase duration="100" state="rrrrrgrryrrrgrrrgrrr"/>
        <phase duration="100" state="rrrrrgrrgrrryrrryrrr"/>
        <phase duration="100" state="rrrrrgrrgrrryrrrgrrr"/>
        <phase duration="100" state="rrrrrgrrgrrrgrrryrrr"/>
        <phase duration="100" state="rrrrrgrrgrrrgrrrgrrr"/>
        <phase duration="100" state="rrrrrgyyyrrrrrrryrrr"/>
        <phase duration="100" state="rrrrrgyyyrrrrrrrgrrr"/>
        <phase duration="100" state="rrrrrgyygrrrrrrryrrr"/>
        <phase duration="100" state="rrrrrgyygrrrrrrrgrrr"/>
        <phase duration="100" state="rrrrrggggrrrrrrryrrr"/>
        <phase duration="100" state="rrrrrggggrrrrrrrgrrr"/>
        <phase duration="100" state="rrrryrrryryyyrrrrrrr"/>
        <phase duration="100" state="rrrryrrryryygrrrrrrr"/>
        <phase duration="100" state="rrrryrrryrgggrrrrrrr"/>
        <phase duration="100" state="rrrryrrrgryyyrrrrrrr"/>
        <phase duration="100" state="rrrryrrrgryygrrrrrrr"/>
        <phase duration="100" state="rrrryrrrgrgggrrrrrrr"/>
        <phase duration="100" state="rrrryryyyrrrrrrrrrry"/>
        <phase duration="100" state="rrrryryyyrrrrrrrrrrg"/>
        <phase duration="100" state="rrrryryygrrrrrrrrrry"/>
        <phase duration="100" state="rrrryryygrrrrrrrrrrg"/>
        <phase duration="100" state="rrrryrgggrrrrrrrrrry"/>
        <phase duration="100" state="rrrryrgggrrrrrrrrrrg"/>
        <phase duration="100" state="rrrryyrrrrrrryrrrryr"/>
        <phase duration="100" state="rrrryyrrrrrrryrrrrgr"/>
        <phase duration="100" state="rrrryyrrrrrrrgrrrryr"/>
        <phase duration="100" state="rrrryyrrrrrrrgrrrrgr"/>
        <phase duration="100" state="rrrryyrrrrrryyrrrrrr"/>
        <phase duration="100" state="rrrryyrrrrrrygrrrrrr"/>
        <phase duration="100" state="rrrryyrrrrrrgyrrrrrr"/>
        <phase duration="100" state="rrrryyrrrrrrggrrrrrr"/>
        <phase duration="100" state="rrrryyrryrrryrrrrrrr"/>
        <phase duration="100" state="rrrryyrryrrrgrrrrrrr"/>
        <phase duration="100" state="rrrryyrrgrrryrrrrrrr"/>
        <phase duration="100" state="rrrryyrrgrrrgrrrrrrr"/>
        <phase duration="100" state="rrrryyyyyrrrrrrrrrrr"/>
        <phase duration="100" state="rrrryyyygrrrrrrrrrrr"/>
        <phase duration="100" state="rrrryygggrrrrrrrrrrr"/>
        <phase duration="100" state="rrrrygrrrrrrryrrrryr"/>
        <phase duration="100" state="rrrrygrrrrrrrgrrrryr"/>
        <phase duration="100" state="rrrrygrrrrrrrgrrrrgr"/>
        <phase duration="100" state="rrrrygrrrrrryyrrrrrr"/>
        <phase duration="100" state="rrrrygrrrrrrygrrrrrr"/>
        <phase duration="100" state="rrrrygrrrrrrgyrrrrrr"/>
        <phase duration="100" state="rrrrygrrrrrrggrrrrrr"/>
        <phase duration="100" state="rrrrygrryrrryrrrrrrr"/>
        <phase duration="100" state="rrrrygrryrrrgrrrrrrr"/>
        <phase duration="100" state="rrrrygrrgrrryrrrrrrr"/>
        <phase duration="100" state="rrrrygrrgrrrgrrrrrrr"/>
        <phase duration="100" state="rrrrygyyyrrrrrrrrrrr"/>
        <phase duration="100" state="rrrrygyygrrrrrrrrrrr"/>
        <phase duration="100" state="rrrryggggrrrrrrrrrrr"/>
        <phase duration="100" state="rrrrgrrryryyyrrrrrrr"/>
        <phase duration="100" state="rrrrgrrryryygrrrrrrr"/>
        <phase duration="100" state="rrrrgrrryrgggrrrrrrr"/>
        <phase duration="100" state="rrrrgrrrgryyyrrrrrrr"/>
        <phase duration="100" state="rrrrgrrrgryygrrrrrrr"/>
        <phase duration="100" state="rrrrgrrrgrgggrrrrrrr"/>
        <phase duration="100" state="rrrrgryyyrrrrrrrrrry"/>
        <phase duration="100" state="rrrrgryyyrrrrrrrrrrg"/>
        <phase duration="100" state="rrrrgryygrrrrrrrrrry"/>
        <phase duration="100" state="rrrrgryygrrrrrrrrrrg"/>
        <phase duration="100" state="rrrrgrgggrrrrrrrrrry"/>
        <phase duration="100" state="rrrrgrgggrrrrrrrrrrg"/>
        <phase duration="100" state="rrrrgyrrrrrrryrrrryr"/>
        <phase duration="100" state="rrrrgyrrrrrrryrrrrgr"/>
        <phase duration="100" state="rrrrgyrrrrrrrgrrrryr"/>
        <phase duration="100" state="rrrrgyrrrrrrrgrrrrgr"/>
        <phase duration="100" state="rrrrgyrrrrrryyrrrrrr"/>
        <phase duration="100" state="rrrrgyrrrrrrygrrrrrr"/>
        <phase duration="100" state="rrrrgyrrrrrrgyrrrrrr"/>
        <phase duration="100" state="rrrrgyrrrrrrggrrrrrr"/>
        <phase duration="100" state="rrrrgyrryrrryrrrrrrr"/>
        <phase duration="100" state="rrrrgyrryrrrgrrrrrrr"/>
        <phase duration="100" state="rrrrgyrrgrrryrrrrrrr"/>
        <phase duration="100" state="rrrrgyrrgrrrgrrrrrrr"/>
        <phase duration="100" state="rrrrgyyyyrrrrrrrrrrr"/>
        <phase duration="100" state="rrrrgyyygrrrrrrrrrrr"/>
        <phase duration="100" state="rrrrgygggrrrrrrrrrrr"/>
        <phase duration="100" state="rrrrggrrrrrrryrrrryr"/>
        <phase duration="100" state="rrrrggrrrrrrrgrrrryr"/>
        <phase duration="100" state="rrrrggrrrrrrrgrrrrgr"/>
        <phase duration="100" state="rrrrggrrrrrryyrrrrrr"/>
        <phase duration="100" state="rrrrggrrrrrrygrrrrrr"/>
        <phase duration="100" state="rrrrggrrrrrrgyrrrrrr"/>
        <phase duration="100" state="rrrrggrrrrrrggrrrrrr"/>
        <phase duration="100" state="rrrrggrryrrryrrrrrrr"/>
        <phase duration="100" state="rrrrggrryrrrgrrrrrrr"/>
        <phase duration="100" state="rrrrggrrgrrryrrrrrrr"/>
        <phase duration="100" state="rrrrggrrgrrrgrrrrrrr"/>
        <phase duration="100" state="rrrrggyyyrrrrrrrrrrr"/>
        <phase duration="100" state="rrrrggyygrrrrrrrrrrr"/>
        <phase duration="100" state="rrrrgggggrrrrrrrrrrr"/>
        <phase duration="100" state="rryyyrrrrrrrrrrrrryy"/>
        <phase duration="100" state="rryyyrrrrrrrrrrrrryg"/>
        <phase duration="100" state="rryyyrrrrrrrrrrrrrgy"/>
        <phase duration="100" state="rryyyrrrrrrrrrrrrrgg"/>
        <phase duration="100" state="rryyyrrrrryyyrrrrrrr"/>
        <phase duration="100" state="rryyyrrrrryygrrrrrrr"/>
        <phase duration="100" state="rryyyrrrrrgggrrrrrrr"/>
        <phase duration="100" state="rryygrrrrrrrrrrrrryy"/>
        <phase duration="100" state="rryygrrrrrrrrrrrrryg"/>
        <phase duration="100" state="rryygrrrrrrrrrrrrrgy"/>
        <phase duration="100" state="rryygrrrrryyyrrrrrrr"/>
        <phase duration="100" state="rryygrrrrryygrrrrrrr"/>
        <phase duration="100" state="rryygrrrrrgggrrrrrrr"/>
        <phase duration="100" state="rrgggrrrrrrrrrrrrryy"/>
        <phase duration="100" state="rrgggrrrrrrrrrrrrryg"/>
        <phase duration="100" state="rrgggrrrrrrrrrrrrrgy"/>
        <phase duration="100" state="rrgggrrrrrrrrrrrrrgg"/>
        <phase duration="100" state="rrgggrrrrryyyrrrrrrr"/>
        <phase duration="100" state="rrgggrrrrryygrrrrrrr"/>
        <phase duration="100" state="rrgggrrrrrgggrrrrrrr"/>
        <phase duration="100" state="ryrrrrrrryrrrrrrryry"/>
        <phase duration="100" state="ryrrrrrrryrrrrrrryrg"/>
        <phase duration="100" state="ryrrrrrrryrrrrrrrgry"/>
        <phase duration="100" state="ryrrrrrrryrrrrrrrgrg"/>
        <phase duration="100" state="ryrrrrrrrgrrrrrrryry"/>
        <phase duration="100" state="ryrrrrrrrgrrrrrrrgry"/>
        <phase duration="100" state="ryrrrrrryyrrrrrrrrry"/>
        <phase duration="100" state="ryrrrrrryyrrrrrrrrrg"/>
        <phase duration="100" state="ryrrrrrrygrrrrrrrrry"/>
        <phase duration="100" state="ryrrrrrrgyrrrrrrrrry"/>
        <phase duration="100" state="ryrrrrrrgyrrrrrrrrrg"/>
        <phase duration="100" state="ryrrrrrrggrrrrrrrrry"/>
        <phase duration="100" state="ryrryrrryrrrrrrrrrry"/>
        <phase duration="100" state="ryrryrrryrrrrrrrrrrg"/>
        <phase duration="100" state="ryrryrrrgrrrrrrrrrry"/>
        <phase duration="100" state="ryrryrrrgrrrrrrrrrrg"/>
        <phase duration="100" state="ryrrgrrryrrrrrrrrrry"/>
        <phase duration="100" state="ryrrgrrryrrrrrrrrrrg"/>
        <phase duration="100" state="ryrrgrrrgrrrrrrrrrry"/>
        <phase duration="100" state="ryrrgrrrgrrrrrrrrrrg"/>
        <phase duration="100" state="ryyyyrrrrrrrrrrrrrry"/>
        <phase duration="100" state="ryyyyrrrrrrrrrrrrrrg"/>
        <phase duration="100" state="ryyygrrrrrrrrrrrrrry"/>
        <phase duration="100" state="ryyygrrrrrrrrrrrrrrg"/>
        <phase duration="100" state="rygggrrrrrrrrrrrrrry"/>
        <phase duration="100" state="rygggrrrrrrrrrrrrrrg"/>
        <phase duration="100" state="rgrrrrrrryrrrrrrryry"/>
        <phase duration="100" state="rgrrrrrrryrrrrrrryrg"/>
        <phase duration="100" state="rgrrrrrrrgrrrrrrryrg"/>
        <phase duration="100" state="rgrrrrrrrgrrrrrrrgrg"/>
        <phase duration="100" state="rgrrrrrryyrrrrrrrrry"/>
        <phase duration="100" state="rgrrrrrryyrrrrrrrrrg"/>