<?xml version="1.0" encoding="UTF-8"?>

<!-- generated on 2024-11-22 16:08:55 by Eclipse SUMO netconvert Version 1.21.0
<netconvertConfiguration xmlns:xsi="http://www.w3.org/2001/XMLSchema-instance" xsi:noNamespaceSchemaLocation="http://sumo.dlr.de/xsd/netconvertConfiguration.xsd">

    <input>
        <node-files value="nodes.nod.xml"/>
        <edge-files value="edges.edg.xml"/>
        <tllogic-files value="tls.add.xml"/>
    </input>

    <output>
        <output-file value="net.net.xml"/>
    </output>

</netconvertConfiguration>
-->

<net version="1.20" junctionCornerDetail="5" limitTurnSpeed="5.50" xmlns:xsi="http://www.w3.org/2001/XMLSchema-instance" xsi:noNamespaceSchemaLocation="http://sumo.dlr.de/xsd/net_file.xsd">

    <location netOffset="500.00,500.00" convBoundary="0.00,0.00,1000.00,1000.00" origBoundary="-500.00,-500.00,500.00,500.00" projParameter="!"/>

    <edge id=":0_0" function="internal">
        <lane id=":0_0_0" index="0" disallow="pedestrian" speed="6.51" length="9.03" shape="498.40,507.20 498.05,504.75 497.00,503.00 495.25,501.95 492.80,501.60"/>
    </edge>
    <edge id=":0_1" function="internal">
        <lane id=":0_1_0" index="0" disallow="pedestrian" speed="11.11" length="14.40" shape="498.40,507.20 498.40,492.80"/>
    </edge>
    <edge id=":0_2" function="internal">
        <lane id=":0_2_0" index="0" disallow="pedestrian" speed="8.00" length="14.19" shape="498.40,507.20 498.95,503.35 500.60,500.60 503.35,498.95 507.20,498.40"/>
    </edge>
    <edge id=":0_3" function="internal">
        <lane id=":0_3_0" index="0" disallow="pedestrian" speed="3.65" length="4.67" shape="498.40,507.20 499.20,506.00 500.00,505.60 500.80,506.00 501.60,507.20"/>
    </edge>
    <edge id=":0_4" function="internal">
        <lane id=":0_4_0" index="0" disallow="pedestrian" speed="6.51" length="9.03" shape="507.20,501.60 504.75,501.95 503.00,503.00 501.95,504.75 501.60,507.20"/>
    </edge>
    <edge id=":0_5" function="internal">
        <lane id=":0_5_0" index="0" disallow="pedestrian" speed="11.11" length="14.40" shape="507.20,501.60 492.80,501.60"/>
    </edge>
    <edge id=":0_6" function="internal">
        <lane id=":0_6_0" index="0" disallow="pedestrian" speed="8.00" length="14.19" shape="507.20,501.60 503.35,501.05 500.60,499.40 498.95,496.65 498.40,492.80"/>
    </edge>
    <edge id=":0_7" function="internal">
        <lane id=":0_7_0" index="0" disallow="pedestrian" speed="3.65" length="4.67" shape="507.20,501.60 506.00,500.80 505.60,500.00 506.00,499.20 507.20,498.40"/>
    </edge>
    <edge id=":0_8" function="internal">
        <lane id=":0_8_0" index="0" disallow="pedestrian" speed="6.51" length="9.03" shape="501.60,492.80 501.95,495.25 503.00,497.00 504.75,498.05 507.20,498.40"/>
    </edge>
    <edge id=":0_9" function="internal">
        <lane id=":0_9_0" index="0" disallow="pedestrian" speed="11.11" length="14.40" shape="501.60,492.80 501.60,507.20"/>
    </edge>
    <edge id=":0_10" function="internal">
        <lane id=":0_10_0" index="0" disallow="pedestrian" speed="8.00" length="14.19" shape="501.60,492.80 501.05,496.65 499.40,499.40 496.65,501.05 492.80,501.60"/>
    </edge>
    <edge id=":0_11" function="internal">
        <lane id=":0_11_0" index="0" disallow="pedestrian" speed="3.65" length="4.67" shape="501.60,492.80 500.80,494.00 500.00,494.40 499.20,494.00 498.40,492.80"/>
    </edge>
    <edge id=":0_12" function="internal">
        <lane id=":0_12_0" index="0" disallow="pedestrian" speed="6.51" length="9.03" shape="492.80,498.40 495.25,498.05 497.00,497.00 498.05,495.25 498.40,492.80"/>
    </edge>
    <edge id=":0_13" function="internal">
        <lane id=":0_13_0" index="0" disallow="pedestrian" speed="11.11" length="14.40" shape="492.80,498.40 507.20,498.40"/>
    </edge>
    <edge id=":0_14" function="internal">
        <lane id=":0_14_0" index="0" disallow="pedestrian" speed="8.00" length="14.19" shape="492.80,498.40 496.65,498.95 499.40,500.60 501.05,503.35 501.60,507.20"/>
    </edge>
    <edge id=":0_15" function="internal">
        <lane id=":0_15_0" index="0" disallow="pedestrian" speed="3.65" length="4.67" shape="492.80,498.40 494.00,499.20 494.40,500.00 494.00,500.80 492.80,501.60"/>
    </edge>
    <edge id=":1_0" function="internal">
        <lane id=":1_0_0" index="0" disallow="pedestrian" speed="3.65" length="4.67" shape="501.60,1000.00 500.80,1001.20 500.00,1001.60 499.20,1001.20 498.40,1000.00"/>
    </edge>
    <edge id=":2_0" function="internal">
        <lane id=":2_0_0" index="0" disallow="pedestrian" speed="3.65" length="4.67" shape="1000.00,498.40 1001.20,499.20 1001.60,500.00 1001.20,500.80 1000.00,501.60"/>
    </edge>
    <edge id=":3_0" function="internal">
        <lane id=":3_0_0" index="0" disallow="pedestrian" speed="3.65" length="4.67" shape="498.40,0.00 499.20,-1.20 500.00,-1.60 500.80,-1.20 501.60,0.00"/>
    </edge>
    <edge id=":4_0" function="internal">
        <lane id=":4_0_0" index="0" disallow="pedestrian" speed="3.65" length="4.67" shape="0.00,501.60 -1.20,500.80 -1.60,500.00 -1.20,499.20 0.00,498.40"/>
    </edge>

    <edge id="ei" from="2" to="0" priority="2">
        <lane id="ei_0" index="0" allow="pedestrian" speed="11.11" length="492.80" width="2.00" shape="1000.00,504.20 507.20,504.20"/>
        <lane id="ei_1" index="1" disallow="pedestrian" speed="11.11" length="492.80" shape="1000.00,501.60 507.20,501.60"/>
    </edge>
    <edge id="eo" from="0" to="2" priority="1">
        <lane id="eo_0" index="0" allow="pedestrian" speed="11.11" length="492.80" width="2.00" shape="507.20,495.80 1000.00,495.80"/>
        <lane id="eo_1" index="1" disallow="pedestrian" speed="11.11" length="492.80" shape="507.20,498.40 1000.00,498.40"/>
    </edge>
    <edge id="ni" from="1" to="0" priority="2">
        <lane id="ni_0" index="0" allow="pedestrian" speed="11.11" length="492.80" width="2.00" shape="495.80,1000.00 495.80,507.20"/>
        <lane id="ni_1" index="1" disallow="pedestrian" speed="11.11" length="492.80" shape="498.40,1000.00 498.40,507.20"/>
    </edge>
    <edge id="no" from="0" to="1" priority="1">
        <lane id="no_0" index="0" allow="pedestrian" speed="11.11" length="492.80" width="2.00" shape="504.20,507.20 504.20,1000.00"/>
        <lane id="no_1" index="1" disallow="pedestrian" speed="11.11" length="492.80" shape="501.60,507.20 501.60,1000.00"/>
    </edge>
    <edge id="si" from="3" to="0" priority="2">
        <lane id="si_0" index="0" allow="pedestrian" speed="11.11" length="492.80" width="2.00" shape="504.20,0.00 504.20,492.80"/>
        <lane id="si_1" index="1" disallow="pedestrian" speed="11.11" length="492.80" shape="501.60,0.00 501.60,492.80"/>
    </edge>
    <edge id="so" from="0" to="3" priority="1">
        <lane id="so_0" index="0" allow="pedestrian" speed="11.11" length="492.80" width="2.00" shape="495.80,492.80 495.80,0.00"/>
        <lane id="so_1" index="1" disallow="pedestrian" speed="11.11" length="492.80" shape="498.40,492.80 498.40,0.00"/>
    </edge>
    <edge id="wi" from="4" to="0" priority="2">
        <lane id="wi_0" index="0" allow="pedestrian" speed="11.11" length="492.80" width="2.00" shape="0.00,495.80 492.80,495.80"/>
        <lane id="wi_1" index="1" disallow="pedestrian" speed="11.11" length="492.80" shape="0.00,498.40 492.80,498.40"/>
    </edge>
    <edge id="wo" from="0" to="4" priority="1">
        <lane id="wo_0" index="0" allow="pedestrian" speed="11.11" length="492.80" width="2.00" shape="492.80,504.20 0.00,504.20"/>
        <lane id="wo_1" index="1" disallow="pedestrian" speed="11.11" length="492.80" shape="492.80,501.60 0.00,501.60"/>
    </edge>

    <tlLogic id="0" type="static" programID="0" offset="0">
        <phase duration="100" state="yyyyrrrrrrrrrrrr"/>
        <phase duration="100" state="ggggrrrrrrrrrrrr"/>
        <phase duration="100" state="rrrryyyyrrrrrrrr"/>
        <phase duration="100" state="rrrrggggrrrrrrrr"/>
        <phase duration="100" state="rrrrrrrryyyyrrrr"/>
        <phase duration="100" state="rrrrrrrrggggrrrr"/>
        <phase duration="100" state="rrrrrrrrrrrryyyy"/>
        <phase duration="100" state="rrrrrrrrrrrrgggg"/>
    </tlLogic>

    <junction id="0" type="traffic_light" x="500.00" y="500.00" incLanes="ni_0 ni_1 ei_0 ei_1 si_0 si_1 wi_0 wi_1" intLanes=":0_0_0 :0_1_0 :0_2_0 :0_3_0 :0_4_0 :0_5_0 :0_6_0 :0_7_0 :0_8_0 :0_9_0 :0_10_0 :0_11_0 :0_12_0 :0_13_0 :0_14_0 :0_15_0" shape="494.80,507.20 505.20,507.20 505.42,506.09 505.70,505.70 506.09,505.42 506.59,505.26 507.20,505.20 507.20,494.80 506.09,494.58 505.70,494.30 505.42,493.91 505.26,493.41 505.20,492.80 494.80,492.80 494.58,493.91 494.30,494.30 493.91,494.58 493.41,494.74 492.80,494.80 492.80,505.20 493.91,505.42 494.30,505.70 494.58,506.09 494.74,506.59">
        <request index="0"  response="0000000000000000" foes="1000010000100000" cont="0"/>
        <request index="1"  response="0000000000000000" foes="0111110001100000" cont="0"/>
        <request index="2"  response="0000011100000000" foes="0110011111100000" cont="0"/>
        <request index="3"  response="0100001000010000" foes="0100001000010000" cont="0"/>
        <request index="4"  response="0000001000000000" foes="0100001000001000" cont="0"/>
        <request index="5"  response="0000011000000111" foes="1100011000000111" cont="0"/>
        <request index="6"  response="0111011000000110" foes="0111111000000110" cont="0"/>
        <request index="7"  response="0010000100000100" foes="0010000100000100" cont="0"/>
        <request index="8"  response="0000000000000000" foes="0010000010000100" cont="0"/>
        <request index="9"  response="0000000000000000" foes="0110000001111100" cont="0"/>
        <request index="10" response="0000000000000011" foes="1110000001100111" cont="0"/>
        <request index="11" response="0001000001000010" foes="0001000001000010" cont="0"/>
        <request index="12" response="0000000000000010" foes="0000100001000010" cont="0"/>
        <request index="13" response="0000011100000110" foes="0000011111000110" cont="0"/>
        <request index="14" response="0000011000110110" foes="0000011001111110" cont="0"/>
        <request index="15" response="0000010000100001" foes="0000010000100001" cont="0"/>
    </junction>
    <junction id="1" type="priority" x="500.00" y="1000.00" incLanes="no_0 no_1" intLanes=":1_0_0" shape="500.00,1000.00 505.20,1000.00 500.00,1000.00">
        <request index="0" response="0" foes="0" cont="0"/>
    </junction>
    <junction id="2" type="priority" x="1000.00" y="500.00" incLanes="eo_0 eo_1" intLanes=":2_0_0" shape="1000.00,500.00 1000.00,494.80 1000.00,500.00">
        <request index="0" response="0" foes="0" cont="0"/>
    </junction>
    <junction id="3" type="priority" x="500.00" y="0.00" incLanes="so_0 so_1" intLanes=":3_0_0" shape="500.00,0.00 494.80,0.00 500.00,0.00">
        <request index="0" response="0" foes="0" cont="0"/>
    </junction>
    <junction id="4" type="priority" x="0.00" y="500.00" incLanes="wo_0 wo_1" intLanes=":4_0_0" shape="0.00,500.00 0.00,505.20 0.00,500.00">
        <request index="0" response="0" foes="0" cont="0"/>
    </junction>

    <connection from="ei" to="no" fromLane="1" toLane="1" via=":0_4_0" tl="0" linkIndex="4" dir="r" state="o"/>
    <connection from="ei" to="wo" fromLane="1" toLane="1" via=":0_5_0" tl="0" linkIndex="5" dir="s" state="o"/>
    <connection from="ei" to="so" fromLane="1" toLane="1" via=":0_6_0" tl="0" linkIndex="6" dir="l" state="o"/>
    <connection from="ei" to="eo" fromLane="1" toLane="1" via=":0_7_0" tl="0" linkIndex="7" dir="t" state="o"/>
    <connection from="eo" to="ei" fromLane="1" toLane="1" via=":2_0_0" dir="t" state="M"/>
    <connection from="ni" to="wo" fromLane="1" toLane="1" via=":0_0_0" tl="0" linkIndex="0" dir="r" state="O"/>
    <connection from="ni" to="so" fromLane="1" toLane="1" via=":0_1_0" tl="0" linkIndex="1" dir="s" state="O"/>
    <connection from="ni" to="eo" fromLane="1" toLane="1" via=":0_2_0" tl="0" linkIndex="2" dir="l" state="o"/>
    <connection from="ni" to="no" fromLane="1" toLane="1" via=":0_3_0" tl="0" linkIndex="3" dir="t" state="o"/>
    <connection from="no" to="ni" fromLane="1" toLane="1" via=":1_0_0" dir="t" state="M"/>
    <connection from="si" to="eo" fromLane="1" toLane="1" via=":0_8_0" tl="0" linkIndex="8" dir="r" state="O"/>
    <connection from="si" to="no" fromLane="1" toLane="1" via=":0_9_0" tl="0" linkIndex="9" dir="s" state="O"/>
    <connection from="si" to="wo" fromLane="1" toLane="1" via=":0_10_0" tl="0" linkIndex="10" dir="l" state="o"/>
    <connection from="si" to="so" fromLane="1" toLane="1" via=":0_11_0" tl="0" linkIndex="11" dir="t" state="o"/>
    <connection from="so" to="si" fromLane="1" toLane="1" via=":3_0_0" dir="t" state="M"/>
    <connection from="wi" to="so" fromLane="1" toLane="1" via=":0_12_0" tl="0" linkIndex="12" dir="r" state="o"/>
    <connection from="wi" to="eo" fromLane="1" toLane="1" via=":0_13_0" tl="0" linkIndex="13" dir="s" state="o"/>
    <connection from="wi" to="no" fromLane="1" toLane="1" via=":0_14_0" tl="0" linkIndex="14" dir="l" state="o"/>
    <connection from="wi" to="wo" fromLane="1" toLane="1" via=":0_15_0" tl="0" linkIndex="15" dir="t" state="o"/>
    <connection from="wo" to="wi" fromLane="1" toLane="1" via=":4_0_0" dir="t" state="M"/>

    <connection from=":0_0" to="wo" fromLane="0" toLane="1" dir="r" state="M"/>
    <connection from=":0_1" to="so" fromLane="0" toLane="1" dir="s" state="M"/>
    <connection from=":0_2" to="eo" fromLane="0" toLane="1" dir="l" state="M"/>
    <connection from=":0_3" to="no" fromLane="0" toLane="1" dir="t" state="M"/>
    <connection from=":0_4" to="no" fromLane="0" toLane="1" dir="r" state="M"/>
    <connection from=":0_5" to="wo" fromLane="0" toLane="1" dir="s" state="M"/>
    <connection from=":0_6" to="so" fromLane="0" toLane="1" dir="l" state="M"/>
    <connection from=":0_7" to="eo" fromLane="0" toLane="1" dir="t" state="M"/>
    <connection from=":0_8" to="eo" fromLane="0" toLane="1" dir="r" state="M"/>
    <connection from=":0_9" to="no" fromLane="0" toLane="1" dir="s" state="M"/>
    <connection from=":0_10" to="wo" fromLane="0" toLane="1" dir="l" state="M"/>
    <connection from=":0_11" to="so" fromLane="0" toLane="1" dir="t" state="M"/>
    <connection from=":0_12" to="so" fromLane="0" toLane="1" dir="r" state="M"/>
    <connection from=":0_13" to="eo" fromLane="0" toLane="1" dir="s" state="M"/>
    <connection from=":0_14" to="no" fromLane="0" toLane="1" dir="l" state="M"/>
    <connection from=":0_15" to="wo" fromLane="0" toLane="1" dir="t" state="M"/>
    <connection from=":1_0" to="ni" fromLane="0" toLane="1" dir="t" state="M"/>
    <connection from=":2_0" to="ei" fromLane="0" toLane="1" dir="t" state="M"/>
    <connection from=":3_0" to="si" fromLane="0" toLane="1" dir="t" state="M"/>
    <connection from=":4_0" to="wi" fromLane="0" toLane="1" dir="t" state="M"/>

</net>
