<routes>
            <vType id="type1" accel="0.8" decel="4.5" sigma="0.5" length="5" maxSpeed="70"/>
            <vType id="rescue" vClass="emergency" speedFactor="1.5" guiShape="emergency">
                <param key="has.bluelight.device" value="true"/>
            </vType>
            <route id="ne" edges="ni eo"/>
            <route id="ns" edges="ni so"/>
            <route id="nw" edges="ni wo"/>
            <route id="en" edges="ei no"/>
            <route id="es" edges="ei so"/>
            <route id="ew" edges="ei wo"/>
            <route id="sn" edges="si no"/>
            <route id="se" edges="si eo"/>
            <route id="sw" edges="si wo"/>
            <route id="wn" edges="wi no"/>
            <route id="we" edges="wi eo"/>
            <route id="ws" edges="wi so"/>
        
            <personFlow id="p_we" begin="0" end="100" period="50">
                <walk route="we"/>
            </personFlow>
                         
            <personFlow id="p_sn" begin="0" end="100" period="50">
                <walk route="sn"/>
            </personFlow>
                         
            <personFlow id="p_ew" begin="0" end="100" period="50">
                <walk route="ew"/>
            </personFlow>
                         
            <personFlow id="p_ns" begin="0" end="100" period="50">
                <walk route="ns"/>
            </personFlow>
                         <vehicle id="type1_1" type="type1" route="ws" depart="2.503654123886366" />
<vehicle id="type1_2" type="type1" route="ew" depart="3.25439691118896" />
<vehicle id="type1_3" type="type1" route="wn" depart="4.347212118218248" />
<vehicle id="type1_4" type="type1" route="sn" depart="4.463271576957855" />
<vehicle id="type1_5" type="type1" route="es" depart="10.490841735658927" />
<vehicle id="type1_6" type="type1" route="sn" depart="11.149050013060211" />
<vehicle id="type1_7" type="type1" route="sw" depart="11.528671644874889" />
<vehicle id="type1_8" type="type1" route="es" depart="15.008782136048097" />
<vehicle id="type1_9" type="type1" route="ne" depart="16.20924320446843" />
<vehicle id="type1_10" type="type1" route="ew" depart="18.807125214370377" />
<vehicle id="type1_11" type="type1" route="ew" depart="21.279558234299962" />
<vehicle id="type1_12" type="type1" route="ne" depart="23.74791168733689" />
<vehicle id="type1_13" type="type1" route="sn" depart="23.90034098610808" />
<vehicle id="type1_14" type="type1" route="ew" depart="23.9065077692559" />
<vehicle id="type1_15" type="type1" route="ws" depart="24.924533879953085" />
<vehicle id="type1_16" type="type1" route="sw" depart="27.68504442379304" />
<vehicle id="type1_17" type="type1" route="ws" depart="28.0880418284143" />
<vehicle id="type1_18" type="type1" route="ns" depart="28.233616480345685" />
<vehicle id="type1_19" type="type1" route="sw" depart="37.12178605504718" />
<vehicle id="type1_20" type="type1" route="se" depart="42.73364552549409" />
<vehicle id="type1_21" type="type1" route="sn" depart="43.59547272839111" />
<vehicle id="type1_22" type="type1" route="ew" depart="45.231083496539874" />
<vehicle id="type1_23" type="type1" route="ew" depart="48.96291547113394" />
<vehicle id="type1_24" type="type1" route="se" depart="55.077720014296034" />
<vehicle id="type1_25" type="type1" route="we" depart="58.07423646295828" />
<vehicle id="type1_26" type="type1" route="we" depart="60.63850264129326" />
<vehicle id="type1_27" type="type1" route="es" depart="61.73565928950662" />
<vehicle id="type1_28" type="type1" route="sn" depart="63.20464115686523" />
<vehicle id="type1_29" type="type1" route="ew" depart="63.73839200583758" />
<vehicle id="type1_30" type="type1" route="ne" depart="71.57009219733965" />
<vehicle id="type1_31" type="type1" route="sw" depart="73.05373262294864" />
<vehicle id="type1_32" type="type1" route="nw" depart="73.12052300265957" />
<vehicle id="type1_33" type="type1" route="sw" depart="81.55275048021677" />
<vehicle id="type1_34" type="type1" route="ne" depart="81.98211848430097" />
<vehicle id="type1_35" type="type1" route="wn" depart="82.00945006609561" />
<vehicle id="type1_36" type="type1" route="wn" depart="83.03600979374959" />
<vehicle id="type1_37" type="type1" route="sw" depart="89.52111281241802" />
<vehicle id="type1_38" type="type1" route="ew" depart="93.34909647599547" />
<vehicle id="type1_39" type="type1" route="sn" depart="94.38126629720983" />
<vehicle id="type1_40" type="type1" route="es" depart="95.54186846530705" />
<vehicle id="type1_41" type="type1" route="ew" depart="98.73763937757057" />
<vehicle id="type1_42" type="type1" route="se" depart="104.24792397785068" />
<vehicle id="type1_43" type="type1" route="sw" depart="104.32799596125297" />
<vehicle id="type1_44" type="type1" route="ne" depart="104.88331332840889" />
<vehicle id="type1_45" type="type1" route="es" depart="105.07203170427151" />
<vehicle id="type1_46" type="type1" route="ew" depart="107.64923411556173" />
<vehicle id="type1_47" type="type1" route="sn" depart="108.27254387787046" />
<vehicle id="type1_48" type="type1" route="we" depart="109.56422891129374" />
<vehicle id="type1_49" type="type1" route="ws" depart="116.66101179285182" />
<vehicle id="type1_50" type="type1" route="ns" depart="127.20912376739543" />
<vehicle id="type1_51" type="type1" route="ew" depart="128.42074355810487" />
<vehicle id="type1_52" type="type1" route="ns" depart="130.34283381880408" />
<vehicle id="type1_53" type="type1" route="nw" depart="131.0606678788319" />
<vehicle id="type1_54" type="type1" route="es" depart="133.04856520050078" />
<vehicle id="type1_55" type="type1" route="nw" depart="135.93622039666826" />
<vehicle id="type1_56" type="type1" route="se" depart="143.589987926814" />
<vehicle id="type1_57" type="type1" route="ne" depart="144.35749855057875" />
<vehicle id="type1_58" type="type1" route="nw" depart="147.04123718011374" />
<vehicle id="type1_59" type="type1" route="wn" depart="148.34006918640497" />
<vehicle id="type1_60" type="type1" route="we" depart="148.93602041720877" />
<vehicle id="emv_1" type="rescue" route="nw" depart="151.30551865689188" />
<vehicle id="type1_61" type="type1" route="sn" depart="151.47927646406907" />
<vehicle id="type1_62" type="type1" route="es" depart="153.5664240529829" />
<vehicle id="type1_63" type="type1" route="es" depart="154.5066749065648" />
<vehicle id="type1_64" type="type1" route="ne" depart="154.87900332000777" />
<vehicle id="type1_65" type="type1" route="nw" depart="158.5694427598594" />
<vehicle id="type1_66" type="type1" route="en" depart="158.61363021499892" />
<vehicle id="type1_67" type="type1" route="ew" depart="160.52693976451323" />
<vehicle id="type1_68" type="type1" route="we" depart="166.52106915175156" />
<vehicle id="type1_69" type="type1" route="ws" depart="166.915721657753" />
<vehicle id="type1_70" type="type1" route="es" depart="167.21508112061855" />
<vehicle id="type1_71" type="type1" route="wn" depart="167.97092599776715" />
<vehicle id="type1_72" type="type1" route="ne" depart="176.83706376747526" />
<vehicle id="type1_73" type="type1" route="ws" depart="176.92473201069436" />
<vehicle id="type1_74" type="type1" route="ws" depart="177.31940243461045" />
<vehicle id="type1_75" type="type1" route="nw" depart="180.0550017323534" />
<vehicle id="type1_76" type="type1" route="se" depart="182.208718056198" />
<vehicle id="type1_77" type="type1" route="we" depart="184.12526685516536" />
<vehicle id="type1_78" type="type1" route="wn" depart="184.92201096629793" />
<vehicle id="type1_79" type="type1" route="sn" depart="186.53144228464714" />
<vehicle id="type1_80" type="type1" route="wn" depart="186.66911935627172" />
<vehicle id="type1_81" type="type1" route="sw" depart="186.91316365998765" />
<vehicle id="type1_82" type="type1" route="en" depart="186.9598640450656" />
<vehicle id="type1_83" type="type1" route="nw" depart="188.20045814860282" />
<vehicle id="type1_84" type="type1" route="nw" depart="195.15087426323274" />
<vehicle id="type1_85" type="type1" route="we" depart="195.7110206363888" />
<vehicle id="type1_86" type="type1" route="sw" depart="195.76705563007235" />
<vehicle id="type1_87" type="type1" route="ws" depart="196.26714419194823" />
<vehicle id="type1_88" type="type1" route="we" depart="197.59549988433662" />
<vehicle id="emv_2" type="rescue" route="nw" depart="198.12700013617624" />
<vehicle id="type1_89" type="type1" route="sn" depart="198.25034613723375" />
<vehicle id="type1_90" type="type1" route="wn" depart="198.42880057890704" />
<vehicle id="type1_91" type="type1" route="nw" depart="200.29734682928256" />
<vehicle id="type1_92" type="type1" route="ew" depart="200.53264362384826" />
<vehicle id="type1_93" type="type1" route="se" depart="201.8012945258921" />
<vehicle id="type1_94" type="type1" route="ew" depart="202.38053468040792" />
<vehicle id="type1_95" type="type1" route="wn" depart="209.4331881367791" />
<vehicle id="type1_96" type="type1" route="sn" depart="209.62733718927151" />
<vehicle id="type1_97" type="type1" route="ew" depart="209.66063701288488" />
<vehicle id="type1_98" type="type1" route="nw" depart="211.6432397570084" />
<vehicle id="type1_99" type="type1" route="ne" depart="212.54953628372851" />
<vehicle id="type1_100" type="type1" route="we" depart="213.7839299398809" />
<vehicle id="type1_101" type="type1" route="ws" depart="219.0414539932335" />
<vehicle id="type1_102" type="type1" route="es" depart="219.558239031347" />
<vehicle id="type1_103" type="type1" route="ns" depart="219.97581479419068" />
<vehicle id="type1_104" type="type1" route="en" depart="220.47441340767602" />
<vehicle id="type1_105" type="type1" route="sw" depart="220.81999844589328" />
<vehicle id="type1_106" type="type1" route="ew" depart="221.19324503219528" />
<vehicle id="type1_107" type="type1" route="ne" depart="221.20338025271852" />
<vehicle id="type1_108" type="type1" route="es" depart="223.35175175495218" />
<vehicle id="type1_109" type="type1" route="es" depart="227.3916204564107" />
<vehicle id="type1_110" type="type1" route="we" depart="227.70035474117725" />
<vehicle id="type1_111" type="type1" route="es" depart="228.07884514155356" />
<vehicle id="type1_112" type="type1" route="ew" depart="229.27519341105085" />
<vehicle id="type1_113" type="type1" route="ew" depart="231.78527964324" />
<vehicle id="type1_114" type="type1" route="we" depart="233.5594086826385" />
<vehicle id="type1_115" type="type1" route="ew" depart="234.3072448988757" />
<vehicle id="type1_116" type="type1" route="ws" depart="235.27668371026527" />
<vehicle id="type1_117" type="type1" route="es" depart="239.93435199360562" />
<vehicle id="type1_118" type="type1" route="ew" depart="241.9519080104271" />
<vehicle id="type1_119" type="type1" route="ns" depart="242.8458194277579" />
<vehicle id="type1_120" type="type1" route="nw" depart="243.48828242268834" />
<vehicle id="type1_121" type="type1" route="we" depart="243.62585377533648" />
<vehicle id="type1_122" type="type1" route="ne" depart="247.3527192577002" />
<vehicle id="type1_123" type="type1" route="ws" depart="251.32273990083831" />
<vehicle id="type1_124" type="type1" route="we" depart="254.4316356792275" />
<vehicle id="type1_125" type="type1" route="en" depart="254.4341633992711" />
<vehicle id="type1_126" type="type1" route="es" depart="255.50007998760788" />
<vehicle id="type1_127" type="type1" route="we" depart="256.5682084592263" />
<vehicle id="type1_128" type="type1" route="ne" depart="257.1936583182967" />
<vehicle id="type1_129" type="type1" route="ws" depart="257.1951174867159" />
<vehicle id="type1_130" type="type1" route="ew" depart="258.0951666885061" />
<vehicle id="type1_131" type="type1" route="en" depart="258.39210711311296" />
<vehicle id="type1_132" type="type1" route="ns" depart="261.71130067344893" />
<vehicle id="type1_133" type="type1" route="se" depart="263.98049293777257" />
<vehicle id="type1_134" type="type1" route="en" depart="265.6700808239518" />
<vehicle id="type1_135" type="type1" route="es" depart="266.485391772083" />
<vehicle id="type1_136" type="type1" route="ne" depart="268.8020522643303" />
<vehicle id="type1_137" type="type1" route="ns" depart="271.7855803678085" />
<vehicle id="type1_138" type="type1" route="sn" depart="272.0037540726447" />
<vehicle id="type1_139" type="type1" route="es" depart="277.56038867332956" />
<vehicle id="type1_140" type="type1" route="nw" depart="277.97004247634413" />
<vehicle id="type1_141" type="type1" route="es" depart="284.9058532534934" />
<vehicle id="type1_142" type="type1" route="we" depart="285.8868334716256" />
<vehicle id="type1_143" type="type1" route="ns" depart="286.58836881145197" />
<vehicle id="type1_144" type="type1" route="ns" depart="287.9594082805675" />
<vehicle id="type1_145" type="type1" route="se" depart="293.9864253452448" />
<vehicle id="type1_146" type="type1" route="ns" depart="294.167260846443" />
<vehicle id="type1_147" type="type1" route="sn" depart="294.2572214036045" />
<vehicle id="type1_148" type="type1" route="wn" depart="301.97446727785774" />
<vehicle id="type1_149" type="type1" route="ns" depart="302.21439568511664" />
<vehicle id="emv_3" type="rescue" route="we" depart="307.7509376695234" />
<vehicle id="type1_150" type="type1" route="sn" depart="310.09781316347375" />
<vehicle id="type1_151" type="type1" route="sw" depart="314.7538088043478" />
<vehicle id="type1_152" type="type1" route="ws" depart="319.7156038269689" />
<vehicle id="type1_153" type="type1" route="nw" depart="325.94435644815195" />
<vehicle id="type1_154" type="type1" route="nw" depart="328.1254111908789" />
<vehicle id="type1_155" type="type1" route="en" depart="329.68843806303033" />
<vehicle id="type1_156" type="type1" route="ns" depart="330.48681190979295" />
<vehicle id="type1_157" type="type1" route="sn" depart="330.5040200507693" />
<vehicle id="type1_158" type="type1" route="se" depart="334.5134943435128" />
<vehicle id="type1_159" type="type1" route="ns" depart="335.0720294851921" />
<vehicle id="type1_160" type="type1" route="sw" depart="335.96264624814546" />
<vehicle id="type1_161" type="type1" route="sn" depart="338.8202120561057" />
<vehicle id="type1_162" type="type1" route="ne" depart="345.19559363942204" />
<vehicle id="type1_163" type="type1" route="ew" depart="346.6718065875607" />
<vehicle id="type1_164" type="type1" route="se" depart="347.6016937114008" />
<vehicle id="type1_165" type="type1" route="ws" depart="348.0626176296507" />
<vehicle id="type1_166" type="type1" route="nw" depart="350.9654984162969" />
<vehicle id="type1_167" type="type1" route="sn" depart="354.87895304358926" />
<vehicle id="type1_168" type="type1" route="ns" depart="354.9443718602911" />
<vehicle id="type1_169" type="type1" route="we" depart="362.42921617491385" />
<vehicle id="type1_170" type="type1" route="sn" depart="362.6205694758422" />
<vehicle id="type1_171" type="type1" route="se" depart="362.70033705535747" />
<vehicle id="type1_172" type="type1" route="wn" depart="365.3979262174364" />
<vehicle id="type1_173" type="type1" route="nw" depart="366.81027835382645" />
<vehicle id="type1_174" type="type1" route="nw" depart="367.2814227597176" />
<vehicle id="type1_175" type="type1" route="wn" depart="368.9282706154695" />
<vehicle id="type1_176" type="type1" route="ns" depart="369.0808694921203" />
<vehicle id="type1_177" type="type1" route="es" depart="375.1840017665089" />
<vehicle id="type1_178" type="type1" route="we" depart="376.505592672041" />
<vehicle id="type1_179" type="type1" route="sw" depart="378.9246193611621" />
<vehicle id="type1_180" type="type1" route="se" depart="384.68315071565945" />
<vehicle id="type1_181" type="type1" route="we" depart="386.0734411916709" />
<vehicle id="type1_182" type="type1" route="we" depart="395.4998728189393" />
<vehicle id="type1_183" type="type1" route="sn" depart="397.99087798585134" />
<vehicle id="type1_184" type="type1" route="ew" depart="400.3405806661309" />
<vehicle id="type1_185" type="type1" route="ne" depart="402.8984800419829" />
<vehicle id="type1_186" type="type1" route="wn" depart="407.7258827291651" />
<vehicle id="type1_187" type="type1" route="sw" depart="411.8700019610816" />
<vehicle id="type1_188" type="type1" route="nw" depart="412.5089549830709" />
<vehicle id="type1_189" type="type1" route="ne" depart="418.26834499830545" />
<vehicle id="type1_190" type="type1" route="we" depart="419.47734807810866" />
<vehicle id="type1_191" type="type1" route="es" depart="420.98872726903323" />
<vehicle id="type1_192" type="type1" route="se" depart="424.58487182678624" />
<vehicle id="type1_193" type="type1" route="wn" depart="427.5279958650408" />
<vehicle id="type1_194" type="type1" route="sw" depart="428.14329207064253" />
<vehicle id="type1_195" type="type1" route="nw" depart="428.73780387196933" />
<vehicle id="type1_196" type="type1" route="nw" depart="429.1479085166413" />
<vehicle id="type1_197" type="type1" route="es" depart="430.34026477252206" />
<vehicle id="type1_198" type="type1" route="en" depart="437.21944961429307" />
<vehicle id="type1_199" type="type1" route="sn" depart="438.3145044920552" />
<vehicle id="type1_200" type="type1" route="en" depart="438.75192322309607" />
<vehicle id="type1_201" type="type1" route="ne" depart="440.3371164349483" />
<vehicle id="type1_202" type="type1" route="we" depart="441.0503157504125" />
<vehicle id="type1_203" type="type1" route="ew" depart="442.5665102618474" />
<vehicle id="type1_204" type="type1" route="we" depart="442.66562510161134" />
<vehicle id="type1_205" type="type1" route="wn" depart="444.6811027884004" />
<vehicle id="type1_206" type="type1" route="wn" depart="445.2315195841619" />
<vehicle id="type1_207" type="type1" route="ns" depart="446.7922911823553" />
<vehicle id="type1_208" type="type1" route="sw" depart="449.1506943425511" />
<vehicle id="type1_209" type="type1" route="se" depart="449.3359002219837" />
<vehicle id="type1_210" type="type1" route="ne" depart="449.6622812889943" />
<vehicle id="type1_211" type="type1" route="sn" depart="450.1265143147794" />
<vehicle id="type1_212" type="type1" route="wn" depart="450.5976700692795" />
<vehicle id="type1_213" type="type1" route="nw" depart="454.6300793486471" />
<vehicle id="type1_214" type="type1" route="sw" depart="457.5223204453044" />
<vehicle id="type1_215" type="type1" route="sn" depart="457.9368084875367" />
<vehicle id="type1_216" type="type1" route="we" depart="458.887432690153" />
<vehicle id="type1_217" type="type1" route="sn" depart="460.5800369772736" />
<vehicle id="type1_218" type="type1" route="we" depart="463.6236837712497" />
<vehicle id="type1_219" type="type1" route="es" depart="464.7778112443287" />
<vehicle id="emv_4" type="rescue" route="we" depart="464.9029382739609" />
<vehicle id="type1_220" type="type1" route="ew" depart="465.92075970294786" />
<vehicle id="type1_221" type="type1" route="ws" depart="466.95474694581566" />
<vehicle id="type1_222" type="type1" route="se" depart="468.35926308580184" />
<vehicle id="type1_223" type="type1" route="nw" depart="468.7989466077943" />
<vehicle id="type1_224" type="type1" route="sn" depart="469.63697744708736" />
<vehicle id="type1_225" type="type1" route="we" depart="471.0948459809435" />
<vehicle id="emv_5" type="rescue" route="we" depart="472.44777786796345" />
<vehicle id="type1_226" type="type1" route="es" depart="475.30379017276266" />
<vehicle id="type1_227" type="type1" route="ws" depart="476.06895340822257" />
<vehicle id="type1_228" type="type1" route="sn" depart="480.6141424821041" />
<vehicle id="type1_229" type="type1" route="se" depart="480.847577392551" />
<vehicle id="type1_230" type="type1" route="se" depart="482.72256105807315" />
<vehicle id="type1_231" type="type1" route="ne" depart="484.0114789498434" />
<vehicle id="type1_232" type="type1" route="se" depart="485.1663411968989" />
<vehicle id="type1_233" type="type1" route="es" depart="486.21567724006513" />
<vehicle id="type1_234" type="type1" route="sn" depart="486.74217149371026" />
<vehicle id="type1_235" type="type1" route="ew" depart="486.76446171123456" />
<vehicle id="type1_236" type="type1" route="ws" depart="487.7980394260653" />
<vehicle id="type1_237" type="type1" route="sw" depart="490.314026482821" />
<vehicle id="type1_238" type="type1" route="we" depart="492.85486046522294" />
<vehicle id="type1_239" type="type1" route="ew" depart="493.3002193716907" />
<vehicle id="type1_240" type="type1" route="sn" depart="494.06752214853105" />
<vehicle id="type1_241" type="type1" route="sw" depart="496.13636300835213" />
<vehicle id="type1_242" type="type1" route="en" depart="496.44096747235625" />
<vehicle id="type1_243" type="type1" route="wn" depart="499.1432788602405" />
<vehicle id="type1_244" type="type1" route="nw" depart="501.9276900103801" />
<vehicle id="type1_245" type="type1" route="es" depart="504.918230024605" />
<vehicle id="type1_246" type="type1" route="sn" depart="507.18923430414463" />
<vehicle id="type1_247" type="type1" route="ws" depart="508.0590329996486" />
<vehicle id="type1_248" type="type1" route="wn" depart="512.7150218263463" />
<vehicle id="type1_249" type="type1" route="we" depart="515.1892414375549" />
<vehicle id="type1_250" type="type1" route="sn" depart="516.5253078734972" />
<vehicle id="type1_251" type="type1" route="we" depart="518.5125008464852" />
<vehicle id="type1_252" type="type1" route="sn" depart="518.7944194708887" />
<vehicle id="type1_253" type="type1" route="we" depart="522.6421426268238" />
<vehicle id="type1_254" type="type1" route="en" depart="524.944885718195" />
<vehicle id="type1_255" type="type1" route="ns" depart="528.4815254680509" />
<vehicle id="type1_256" type="type1" route="en" depart="531.8838999449077" />
<vehicle id="type1_257" type="type1" route="ws" depart="533.5149070126288" />
<vehicle id="type1_258" type="type1" route="we" depart="535.7524738859843" />
<vehicle id="type1_259" type="type1" route="sn" depart="536.2053798349648" />
<vehicle id="type1_260" type="type1" route="ew" depart="536.2176792799645" />
<vehicle id="type1_261" type="type1" route="se" depart="537.3539114190959" />
<vehicle id="type1_262" type="type1" route="ne" depart="538.6836271077059" />
<vehicle id="type1_263" type="type1" route="nw" depart="540.2378785452128" />
<vehicle id="type1_264" type="type1" route="ne" depart="541.7558156584721" />
<vehicle id="type1_265" type="type1" route="wn" depart="543.2676382024322" />
<vehicle id="type1_266" type="type1" route="ws" depart="547.2433589242697" />
<vehicle id="type1_267" type="type1" route="ns" depart="550.2162057900744" />
<vehicle id="type1_268" type="type1" route="sn" depart="550.7128628177838" />
<vehicle id="type1_269" type="type1" route="ns" depart="553.0846210683013" />
<vehicle id="type1_270" type="type1" route="ws" depart="559.017297308115" />
<vehicle id="type1_271" type="type1" route="es" depart="563.3823223949312" />
<vehicle id="type1_272" type="type1" route="we" depart="563.9633662496644" />
<vehicle id="type1_273" type="type1" route="nw" depart="564.7973776793028" />
<vehicle id="type1_274" type="type1" route="we" depart="567.3573798796567" />
<vehicle id="type1_275" type="type1" route="sn" depart="570.2038091960976" />
<vehicle id="type1_276" type="type1" route="sn" depart="571.8803481903673" />
<vehicle id="type1_277" type="type1" route="wn" depart="577.7021619494269" />
<vehicle id="type1_278" type="type1" route="es" depart="578.6264096396536" />
<vehicle id="type1_279" type="type1" route="wn" depart="581.4667547911281" />
<vehicle id="type1_280" type="type1" route="es" depart="581.65507890419" />
<vehicle id="type1_281" type="type1" route="we" depart="582.0217472345493" />
<vehicle id="type1_282" type="type1" route="sn" depart="582.1292787772632" />
<vehicle id="type1_283" type="type1" route="ew" depart="587.5132033665708" />
<vehicle id="type1_284" type="type1" route="ne" depart="590.0320603565042" />
<vehicle id="type1_285" type="type1" route="se" depart="591.3296609105998" />
<vehicle id="type1_286" type="type1" route="ne" depart="591.623942082606" />
<vehicle id="type1_287" type="type1" route="ns" depart="593.7854290991966" />
<vehicle id="type1_288" type="type1" route="se" depart="597.6085841422105" />
<vehicle id="type1_289" type="type1" route="ws" depart="598.6183742802845" />
<vehicle id="type1_290" type="type1" route="ns" depart="600.9921149580313" />
<vehicle id="type1_291" type="type1" route="ne" depart="602.0418985329852" />
<vehicle id="type1_292" type="type1" route="en" depart="604.098603638995" />
<vehicle id="type1_293" type="type1" route="es" depart="604.4579917729618" />
<vehicle id="type1_294" type="type1" route="sn" depart="609.5487397390011" />
<vehicle id="emv_6" type="rescue" route="ne" depart="611.3487669476018" />
<vehicle id="type1_295" type="type1" route="sw" depart="612.7616174670313" />
<vehicle id="type1_296" type="type1" route="ew" depart="616.1640376556697" />
<vehicle id="type1_297" type="type1" route="en" depart="616.2833459322061" />
<vehicle id="type1_298" type="type1" route="se" depart="619.9032887534253" />
<vehicle id="type1_299" type="type1" route="we" depart="620.4540594227958" />
<vehicle id="type1_300" type="type1" route="ew" depart="621.6190190666895" />
<vehicle id="type1_301" type="type1" route="ns" depart="624.0226225362403" />
<vehicle id="type1_302" type="type1" route="sw" depart="625.2483309408417" />
<vehicle id="type1_303" type="type1" route="es" depart="626.2958595352337" />
<vehicle id="type1_304" type="type1" route="nw" depart="626.6321523299325" />
<vehicle id="type1_305" type="type1" route="es" depart="628.823105782626" />
<vehicle id="emv_7" type="rescue" route="se" depart="636.2874320571217" />
<vehicle id="type1_306" type="type1" route="ns" depart="641.237478462842" />
<vehicle id="type1_307" type="type1" route="ws" depart="641.972333843409" />
<vehicle id="type1_308" type="type1" route="ew" depart="643.2843211699677" />
<vehicle id="type1_309" type="type1" route="en" depart="644.6567104515472" />
<vehicle id="type1_310" type="type1" route="es" depart="647.9316834136115" />
<vehicle id="emv_8" type="rescue" route="se" depart="649.4389433613835" />
<vehicle id="type1_311" type="type1" route="wn" depart="649.9792205095242" />
<vehicle id="type1_312" type="type1" route="wn" depart="650.1806774465533" />
<vehicle id="type1_313" type="type1" route="ne" depart="650.3147570409834" />
<vehicle id="type1_314" type="type1" route="ns" depart="655.2739631133264" />
<vehicle id="type1_315" type="type1" route="se" depart="656.3472649845124" />
<vehicle id="type1_316" type="type1" route="wn" depart="656.9192067246581" />
<vehicle id="type1_317" type="type1" route="ew" depart="657.2763268538891" />
<vehicle id="type1_318" type="type1" route="ns" depart="658.7556484982322" />
<vehicle id="type1_319" type="type1" route="wn" depart="659.1164579529218" />
<vehicle id="type1_320" type="type1" route="ws" depart="662.74053052336" />
<vehicle id="type1_321" type="type1" route="se" depart="663.3685287197654" />
<vehicle id="type1_322" type="type1" route="nw" depart="664.2078056581717" />
<vehicle id="type1_323" type="type1" route="sw" depart="668.8541294052947" />
<vehicle id="type1_324" type="type1" route="ws" depart="669.6013738274467" />
<vehicle id="type1_325" type="type1" route="sw" depart="669.8705503235788" />
<vehicle id="type1_326" type="type1" route="en" depart="672.3707185768793" />
<vehicle id="type1_327" type="type1" route="ws" depart="672.9537780954138" />
<vehicle id="type1_328" type="type1" route="ns" depart="677.056566801083" />
<vehicle id="type1_329" type="type1" route="es" depart="677.321447017554" />
<vehicle id="type1_330" type="type1" route="ws" depart="680.7367301633969" />
<vehicle id="type1_331" type="type1" route="ne" depart="681.4283041344007" />
<vehicle id="type1_332" type="type1" route="sw" depart="681.854477138357" />
<vehicle id="type1_333" type="type1" route="nw" depart="683.7514662323808" />
<vehicle id="type1_334" type="type1" route="se" depart="686.3319702502323" />
<vehicle id="type1_335" type="type1" route="ws" depart="688.4710395422635" />
<vehicle id="type1_336" type="type1" route="sn" depart="689.639717616311" />
<vehicle id="type1_337" type="type1" route="ne" depart="689.9007501786455" />
<vehicle id="type1_338" type="type1" route="ns" depart="690.7577093499247" />
<vehicle id="type1_339" type="type1" route="ne" depart="691.3293864875468" />
<vehicle id="type1_340" type="type1" route="ne" depart="692.5192876543074" />
<vehicle id="type1_341" type="type1" route="ew" depart="695.9512040495946" />
<vehicle id="type1_342" type="type1" route="ns" depart="697.0610006299113" />
<vehicle id="type1_343" type="type1" route="en" depart="700.1092247253376" />
<vehicle id="type1_344" type="type1" route="es" depart="702.0976951646155" />
<vehicle id="type1_345" type="type1" route="sw" depart="704.7042222036894" />
<vehicle id="emv_9" type="rescue" route="nw" depart="711.6075493720505" />
<vehicle id="type1_346" type="type1" route="sn" depart="714.5450800669407" />
<vehicle id="type1_347" type="type1" route="es" depart="714.9414030805588" />
<vehicle id="type1_348" type="type1" route="nw" depart="715.8370781507242" />
<vehicle id="type1_349" type="type1" route="es" depart="717.3528432335733" />
<vehicle id="type1_350" type="type1" route="ew" depart="718.1207598328165" />
<vehicle id="type1_351" type="type1" route="se" depart="721.7565162101804" />
<vehicle id="type1_352" type="type1" route="en" depart="722.6520048675244" />
<vehicle id="type1_353" type="type1" route="ne" depart="731.319073435594" />
<vehicle id="type1_354" type="type1" route="we" depart="732.4432052632588" />
<vehicle id="type1_355" type="type1" route="es" depart="735.346931559381" />
<vehicle id="type1_356" type="type1" route="se" depart="741.6858836283423" />
<vehicle id="type1_357" type="type1" route="wn" depart="743.59023228182" />
<vehicle id="type1_358" type="type1" route="en" depart="743.6507808100723" />