<routes>
            <vType id="type1" accel="0.8" decel="4.5" sigma="0.5" length="5" maxSpeed="70"/>
            <vType id="rescue" vClass="emergency" speedFactor="1.5" guiShape="emergency">
                <param key="has.bluelight.device" value="true"/>
            </vType>
            <route id="ne" edges="ni eo"/>
            <route id="ns" edges="ni so"/>
            <route id="nw" edges="ni wo"/>
            <route id="en" edges="ei no"/>
            <route id="es" edges="ei so"/>
            <route id="ew" edges="ei wo"/>
            <route id="sn" edges="si no"/>
            <route id="se" edges="si eo"/>
            <route id="sw" edges="si wo"/>
            <route id="wn" edges="wi no"/>
            <route id="we" edges="wi eo"/>
            <route id="ws" edges="wi so"/>
        
            <personFlow id="p_ew" begin="0" end="200" period="50">
                <walk route="ew"/>
            </personFlow>
                         
            <personFlow id="p_sn" begin="0" end="200" period="50">
                <walk route="sn"/>
            </personFlow>
                         
            <personFlow id="p_we" begin="0" end="200" period="50">
                <walk route="we"/>
            </personFlow>
                         
            <personFlow id="p_ns" begin="0" end="200" period="50">
                <walk route="ns"/>
            </personFlow>
                         <vehicle id="type1_1" type="type1" route="ne" depart="0.5612581227595365" />
<vehicle id="type1_2" type="type1" route="ew" depart="2.176740310910022" />
<vehicle id="type1_3" type="type1" route="ew" depart="2.9674786540444185" />
<vehicle id="type1_4" type="type1" route="ew" depart="4.448184962740574" />
<vehicle id="type1_5" type="type1" route="se" depart="5.885741977677937" />
<vehicle id="type1_6" type="type1" route="ns" depart="10.55527708932532" />
<vehicle id="type1_7" type="type1" route="ws" depart="11.510973066445743" />
<vehicle id="type1_8" type="type1" route="ns" depart="17.465454775469986" />
<vehicle id="type1_9" type="type1" route="es" depart="18.510284905962962" />
<vehicle id="type1_10" type="type1" route="ew" depart="24.832544881873545" />
<vehicle id="type1_11" type="type1" route="ns" depart="25.857416267475937" />
<vehicle id="type1_12" type="type1" route="ew" depart="27.91030841249192" />
<vehicle id="type1_13" type="type1" route="sn" depart="31.598371359289146" />
<vehicle id="type1_14" type="type1" route="ne" depart="34.23083855145858" />
<vehicle id="type1_15" type="type1" route="en" depart="34.48394356551149" />
<vehicle id="type1_16" type="type1" route="sw" depart="34.50770336172352" />
<vehicle id="type1_17" type="type1" route="ew" depart="49.50641709322374" />
<vehicle id="type1_18" type="type1" route="ne" depart="52.97073408366408" />
<vehicle id="type1_19" type="type1" route="en" depart="54.087603401883804" />
<vehicle id="type1_20" type="type1" route="es" depart="57.75911395720175" />
<vehicle id="type1_21" type="type1" route="se" depart="58.74366386285269" />
<vehicle id="type1_22" type="type1" route="we" depart="61.007086734081824" />
<vehicle id="type1_23" type="type1" route="ew" depart="63.74798311294274" />
<vehicle id="type1_24" type="type1" route="nw" depart="65.02692581109478" />
<vehicle id="type1_25" type="type1" route="we" depart="65.8539174920369" />
<vehicle id="type1_26" type="type1" route="ws" depart="66.71567501586978" />
<vehicle id="type1_27" type="type1" route="sw" depart="67.0001316457791" />
<vehicle id="type1_28" type="type1" route="ne" depart="67.03792453442193" />
<vehicle id="type1_29" type="type1" route="sw" depart="67.81113071223983" />
<vehicle id="type1_30" type="type1" route="ew" depart="71.38306247225904" />
<vehicle id="type1_31" type="type1" route="sw" depart="71.76429891333389" />
<vehicle id="type1_32" type="type1" route="sn" depart="74.19584542420473" />
<vehicle id="type1_33" type="type1" route="wn" depart="74.68099938940625" />
<vehicle id="type1_34" type="type1" route="ew" depart="75.63086169395547" />
<vehicle id="type1_35" type="type1" route="we" depart="81.05418603928861" />
<vehicle id="type1_36" type="type1" route="ew" depart="82.55950449624939" />
<vehicle id="type1_37" type="type1" route="ws" depart="88.4721216790526" />
<vehicle id="type1_38" type="type1" route="we" depart="90.1672701425059" />
<vehicle id="type1_39" type="type1" route="es" depart="94.4750868515551" />
<vehicle id="type1_40" type="type1" route="es" depart="98.11439070560927" />
<vehicle id="type1_41" type="type1" route="wn" depart="98.93863787842935" />
<vehicle id="type1_42" type="type1" route="ns" depart="101.30518412092815" />
<vehicle id="type1_43" type="type1" route="ew" depart="103.58701299119362" />
<vehicle id="type1_44" type="type1" route="sw" depart="103.67401959114615" />
<vehicle id="type1_45" type="type1" route="ns" depart="103.80596956026535" />
<vehicle id="type1_46" type="type1" route="wn" depart="105.92999414243702" />
<vehicle id="type1_47" type="type1" route="ew" depart="106.88310187029066" />
<vehicle id="type1_48" type="type1" route="ns" depart="108.67388269202115" />
<vehicle id="type1_49" type="type1" route="ws" depart="109.35548067695859" />
<vehicle id="type1_50" type="type1" route="sn" depart="111.44129110962182" />
<vehicle id="type1_51" type="type1" route="ne" depart="113.72498561807774" />
<vehicle id="type1_52" type="type1" route="en" depart="115.65545899062661" />
<vehicle id="type1_53" type="type1" route="ns" depart="115.73519649523837" />
<vehicle id="type1_54" type="type1" route="se" depart="117.25943382424707" />
<vehicle id="type1_55" type="type1" route="ne" depart="118.80982452702555" />
<vehicle id="type1_56" type="type1" route="en" depart="119.32470011857782" />
<vehicle id="type1_57" type="type1" route="se" depart="119.52081456605876" />
<vehicle id="type1_58" type="type1" route="se" depart="120.95923360945308" />
<vehicle id="type1_59" type="type1" route="es" depart="123.26657507824618" />
<vehicle id="type1_60" type="type1" route="es" depart="123.67796593614689" />
<vehicle id="type1_61" type="type1" route="ns" depart="125.04631267871977" />
<vehicle id="type1_62" type="type1" route="wn" depart="127.21269957524763" />
<vehicle id="type1_63" type="type1" route="ew" depart="130.6996653302606" />
<vehicle id="type1_64" type="type1" route="ew" depart="133.47659832696573" />
<vehicle id="type1_65" type="type1" route="wn" depart="137.6124218540389" />
<vehicle id="type1_66" type="type1" route="ne" depart="140.21731905882103" />
<vehicle id="type1_67" type="type1" route="ns" depart="144.54975159002672" />
<vehicle id="type1_68" type="type1" route="nw" depart="148.07170845612643" />
<vehicle id="type1_69" type="type1" route="es" depart="151.1484927849912" />
<vehicle id="type1_70" type="type1" route="es" depart="152.83722894836686" />
<vehicle id="type1_71" type="type1" route="sn" depart="155.11451038747796" />
<vehicle id="type1_72" type="type1" route="sn" depart="156.1590482751217" />
<vehicle id="type1_73" type="type1" route="we" depart="157.8569966118781" />
<vehicle id="type1_74" type="type1" route="ew" depart="158.92883086713613" />
<vehicle id="type1_75" type="type1" route="en" depart="159.70590584669543" />
<vehicle id="emv_1" type="rescue" route="es" depart="161.8809714757638" />
<vehicle id="type1_76" type="type1" route="sn" depart="164.62345934787487" />
<vehicle id="type1_77" type="type1" route="sw" depart="168.20185324438393" />
<vehicle id="type1_78" type="type1" route="es" depart="173.09849389915058" />
<vehicle id="type1_79" type="type1" route="ew" depart="173.21655163192756" />
<vehicle id="type1_80" type="type1" route="en" depart="175.63807990148757" />
<vehicle id="type1_81" type="type1" route="ew" depart="180.60857187046153" />
<vehicle id="type1_82" type="type1" route="es" depart="181.75276059568432" />
<vehicle id="type1_83" type="type1" route="we" depart="182.44152044168342" />
<vehicle id="type1_84" type="type1" route="es" depart="183.67518611466969" />
<vehicle id="type1_85" type="type1" route="ns" depart="184.53703447504105" />
<vehicle id="type1_86" type="type1" route="se" depart="190.86793058102688" />
<vehicle id="type1_87" type="type1" route="ne" depart="191.27448809553286" />
<vehicle id="type1_88" type="type1" route="wn" depart="192.84342924888776" />
<vehicle id="type1_89" type="type1" route="sw" depart="199.07166414935543" />
<vehicle id="type1_90" type="type1" route="sn" depart="200.2125916933054" />
<vehicle id="type1_91" type="type1" route="se" depart="202.3796482689625" />
<vehicle id="type1_92" type="type1" route="wn" depart="204.63946534782158" />
<vehicle id="type1_93" type="type1" route="es" depart="209.3120589599046" />
<vehicle id="type1_94" type="type1" route="we" depart="210.6760479553857" />
<vehicle id="type1_95" type="type1" route="nw" depart="211.9831181020031" />
<vehicle id="type1_96" type="type1" route="ns" depart="215.5203317366782" />
<vehicle id="type1_97" type="type1" route="en" depart="216.2912515003213" />
<vehicle id="type1_98" type="type1" route="ws" depart="216.42175494367146" />
<vehicle id="type1_99" type="type1" route="nw" depart="217.4782226314666" />
<vehicle id="type1_100" type="type1" route="es" depart="219.20117944406795" />
<vehicle id="type1_101" type="type1" route="se" depart="223.5054742648016" />
<vehicle id="type1_102" type="type1" route="ne" depart="225.0175179402031" />
<vehicle id="type1_103" type="type1" route="es" depart="227.2502159794152" />
<vehicle id="type1_104" type="type1" route="nw" depart="229.24507185751582" />
<vehicle id="type1_105" type="type1" route="ew" depart="229.4155648268564" />
<vehicle id="type1_106" type="type1" route="ns" depart="230.1580526846636" />
<vehicle id="type1_107" type="type1" route="we" depart="231.6375584933291" />
<vehicle id="type1_108" type="type1" route="en" depart="231.88777920240386" />
<vehicle id="type1_109" type="type1" route="es" depart="232.42187342682203" />
<vehicle id="type1_110" type="type1" route="es" depart="232.75105667580655" />
<vehicle id="type1_111" type="type1" route="sn" depart="234.303430877826" />
<vehicle id="type1_112" type="type1" route="ns" depart="234.7185438380141" />
<vehicle id="type1_113" type="type1" route="en" depart="234.92836727792888" />
<vehicle id="type1_114" type="type1" route="ne" depart="236.99428567967632" />
<vehicle id="type1_115" type="type1" route="sw" depart="237.52939655879283" />
<vehicle id="type1_116" type="type1" route="nw" depart="238.15144618782784" />
<vehicle id="type1_117" type="type1" route="ew" depart="241.38181739379152" />
<vehicle id="type1_118" type="type1" route="es" depart="242.43282022679858" />
<vehicle id="type1_119" type="type1" route="ne" depart="242.94400566829134" />
<vehicle id="type1_120" type="type1" route="se" depart="245.13470006915273" />
<vehicle id="type1_121" type="type1" route="ne" depart="246.85688359053054" />
<vehicle id="type1_122" type="type1" route="ne" depart="250.7446395842455" />
<vehicle id="type1_123" type="type1" route="en" depart="252.5688181271372" />
<vehicle id="type1_124" type="type1" route="ne" depart="259.6411283911138" />
<vehicle id="type1_125" type="type1" route="ns" depart="260.26864204369053" />
<vehicle id="type1_126" type="type1" route="ew" depart="261.16115639747915" />
<vehicle id="type1_127" type="type1" route="wn" depart="262.5344314739537" />
<vehicle id="type1_128" type="type1" route="wn" depart="263.56050657723375" />
<vehicle id="type1_129" type="type1" route="ns" depart="264.9675939198346" />
<vehicle id="type1_130" type="type1" route="es" depart="265.13455558011367" />
<vehicle id="type1_131" type="type1" route="sn" depart="266.631710711531" />
<vehicle id="type1_132" type="type1" route="wn" depart="271.3581018128617" />
<vehicle id="type1_133" type="type1" route="ew" depart="272.6804884584439" />
<vehicle id="type1_134" type="type1" route="sn" depart="275.76192961474817" />
<vehicle id="type1_135" type="type1" route="en" depart="280.1099074985414" />
<vehicle id="type1_136" type="type1" route="sn" depart="281.6174936297231" />
<vehicle id="type1_137" type="type1" route="es" depart="281.83090155467517" />
<vehicle id="type1_138" type="type1" route="ns" depart="283.54599512073287" />
<vehicle id="type1_139" type="type1" route="ne" depart="293.72286533483793" />
<vehicle id="type1_140" type="type1" route="we" depart="293.8015787950348" />
<vehicle id="type1_141" type="type1" route="se" depart="296.222525151487" />
<vehicle id="type1_142" type="type1" route="ew" depart="299.72388737398654" />
<vehicle id="type1_143" type="type1" route="nw" depart="301.24064960043825" />
<vehicle id="type1_144" type="type1" route="we" depart="301.57605349472914" />
<vehicle id="type1_145" type="type1" route="sw" depart="302.9077353834211" />
<vehicle id="type1_146" type="type1" route="nw" depart="303.03403716154315" />
<vehicle id="type1_147" type="type1" route="es" depart="303.93788974370557" />
<vehicle id="type1_148" type="type1" route="ew" depart="304.1348381118082" />
<vehicle id="type1_149" type="type1" route="wn" depart="305.6942883095252" />
<vehicle id="type1_150" type="type1" route="ns" depart="307.02720110108305" />
<vehicle id="type1_151" type="type1" route="ns" depart="309.21264986765436" />
<vehicle id="type1_152" type="type1" route="es" depart="309.6941852624514" />
<vehicle id="type1_153" type="type1" route="sn" depart="310.74928181672396" />
<vehicle id="type1_154" type="type1" route="we" depart="314.082893513747" />
<vehicle id="type1_155" type="type1" route="wn" depart="315.93762475132905" />
<vehicle id="type1_156" type="type1" route="ne" depart="320.3222549594297" />
<vehicle id="type1_157" type="type1" route="ws" depart="325.36116451791264" />
<vehicle id="type1_158" type="type1" route="sn" depart="327.05166566806145" />
<vehicle id="type1_159" type="type1" route="se" depart="327.7058747350512" />
<vehicle id="type1_160" type="type1" route="ew" depart="328.7521259324163" />
<vehicle id="type1_161" type="type1" route="we" depart="329.73578957547153" />
<vehicle id="type1_162" type="type1" route="es" depart="335.31493193737947" />
<vehicle id="type1_163" type="type1" route="we" depart="336.3656960839425" />
<vehicle id="type1_164" type="type1" route="es" depart="336.89224818377227" />
<vehicle id="type1_165" type="type1" route="en" depart="337.15421638865706" />
<vehicle id="type1_166" type="type1" route="ew" depart="343.4031831607995" />
<vehicle id="type1_167" type="type1" route="en" depart="348.4649846189969" />
<vehicle id="type1_168" type="type1" route="se" depart="348.88315171049027" />
<vehicle id="type1_169" type="type1" route="es" depart="348.92252028760674" />
<vehicle id="type1_170" type="type1" route="ew" depart="350.2924578693231" />
<vehicle id="type1_171" type="type1" route="wn" depart="350.38689029500983" />
<vehicle id="type1_172" type="type1" route="sn" depart="351.0599618001373" />
<vehicle id="type1_173" type="type1" route="en" depart="352.2219340277153" />
<vehicle id="type1_174" type="type1" route="es" depart="352.61322630575256" />
<vehicle id="type1_175" type="type1" route="se" depart="352.84121687940836" />
<vehicle id="type1_176" type="type1" route="se" depart="354.68353673023114" />
<vehicle id="type1_177" type="type1" route="es" depart="356.29981230310733" />
<vehicle id="type1_178" type="type1" route="sw" depart="358.062148377715" />
<vehicle id="type1_179" type="type1" route="ws" depart="360.51173092949796" />
<vehicle id="type1_180" type="type1" route="sn" depart="362.7775959324797" />
<vehicle id="type1_181" type="type1" route="ew" depart="364.00005892096004" />
<vehicle id="type1_182" type="type1" route="se" depart="366.55894180865243" />
<vehicle id="type1_183" type="type1" route="es" depart="369.5667191709441" />
<vehicle id="type1_184" type="type1" route="en" depart="372.0478076470398" />
<vehicle id="type1_185" type="type1" route="se" depart="373.80690175079104" />
<vehicle id="type1_186" type="type1" route="sw" depart="376.781793585737" />
<vehicle id="type1_187" type="type1" route="es" depart="378.5026281921737" />
<vehicle id="type1_188" type="type1" route="ns" depart="385.1379572842136" />
<vehicle id="type1_189" type="type1" route="sw" depart="386.3335436734949" />
<vehicle id="type1_190" type="type1" route="en" depart="389.32313938582047" />
<vehicle id="type1_191" type="type1" route="sw" depart="391.4171237851979" />
<vehicle id="type1_192" type="type1" route="sw" depart="397.41080333500287" />
<vehicle id="type1_193" type="type1" route="es" depart="397.74101565428373" />
<vehicle id="type1_194" type="type1" route="se" depart="399.4512867233366" />
<vehicle id="type1_195" type="type1" route="we" depart="402.3431127982562" />
<vehicle id="type1_196" type="type1" route="ew" depart="403.3082331414881" />
<vehicle id="type1_197" type="type1" route="ws" depart="405.09739080256907" />
<vehicle id="type1_198" type="type1" route="es" depart="406.27431753314477" />
<vehicle id="type1_199" type="type1" route="ns" depart="407.7901133655097" />
<vehicle id="type1_200" type="type1" route="wn" depart="411.6835435673805" />
<vehicle id="type1_201" type="type1" route="ns" depart="411.8248559504752" />
<vehicle id="type1_202" type="type1" route="wn" depart="412.90336148335575" />
<vehicle id="type1_203" type="type1" route="en" depart="416.2147617171413" />
<vehicle id="type1_204" type="type1" route="we" depart="417.4158853971386" />
<vehicle id="type1_205" type="type1" route="ns" depart="419.2339013196824" />
<vehicle id="type1_206" type="type1" route="ew" depart="419.97794170742606" />
<vehicle id="type1_207" type="type1" route="ws" depart="421.4961728881797" />
<vehicle id="type1_208" type="type1" route="wn" depart="428.69341447370897" />
<vehicle id="type1_209" type="type1" route="ne" depart="429.84837185709773" />
<vehicle id="type1_210" type="type1" route="se" depart="430.44666908891264" />
<vehicle id="type1_211" type="type1" route="en" depart="431.96313682388825" />
<vehicle id="type1_212" type="type1" route="ns" depart="432.13999220671485" />
<vehicle id="type1_213" type="type1" route="wn" depart="432.6864581155295" />
<vehicle id="type1_214" type="type1" route="nw" depart="433.08990528466313" />
<vehicle id="type1_215" type="type1" route="se" depart="436.00496639638527" />
<vehicle id="type1_216" type="type1" route="ne" depart="437.776048450655" />
<vehicle id="type1_217" type="type1" route="we" depart="442.799290574239" />
<vehicle id="type1_218" type="type1" route="nw" depart="446.21992869075535" />
<vehicle id="type1_219" type="type1" route="nw" depart="446.35668582016785" />
<vehicle id="type1_220" type="type1" route="we" depart="447.3919755930601" />
<vehicle id="type1_221" type="type1" route="ew" depart="447.4228572148372" />
<vehicle id="type1_222" type="type1" route="ws" depart="448.04943636504834" />
<vehicle id="type1_223" type="type1" route="ws" depart="448.8765632640253" />
<vehicle id="type1_224" type="type1" route="ew" depart="454.8804018427153" />
<vehicle id="type1_225" type="type1" route="we" depart="455.0726084228756" />
<vehicle id="type1_226" type="type1" route="en" depart="458.58787127106336" />
<vehicle id="type1_227" type="type1" route="ne" depart="459.03381373470216" />
<vehicle id="type1_228" type="type1" route="ne" depart="459.2778739959494" />
<vehicle id="type1_229" type="type1" route="es" depart="461.1757449560244" />
<vehicle id="type1_230" type="type1" route="ew" depart="463.50140556591674" />
<vehicle id="type1_231" type="type1" route="ws" depart="463.5522066563594" />
<vehicle id="type1_232" type="type1" route="en" depart="464.19978028544404" />
<vehicle id="type1_233" type="type1" route="sw" depart="464.4245503321687" />
<vehicle id="type1_234" type="type1" route="ew" depart="464.87013280399145" />
<vehicle id="type1_235" type="type1" route="ne" depart="466.7439558132547" />
<vehicle id="type1_236" type="type1" route="se" depart="468.7140864407471" />
<vehicle id="type1_237" type="type1" route="ne" depart="468.8601824051897" />
<vehicle id="type1_238" type="type1" route="we" depart="469.2166366139714" />
<vehicle id="type1_239" type="type1" route="ne" depart="471.4454864329663" />
<vehicle id="type1_240" type="type1" route="nw" depart="476.7435344691894" />
<vehicle id="type1_241" type="type1" route="wn" depart="477.06723513465005" />
<vehicle id="type1_242" type="type1" route="es" depart="479.6449892254511" />
<vehicle id="type1_243" type="type1" route="ns" depart="480.0322852119508" />
<vehicle id="type1_244" type="type1" route="sw" depart="482.1573585887013" />
<vehicle id="type1_245" type="type1" route="nw" depart="484.06196532549245" />
<vehicle id="type1_246" type="type1" route="we" depart="487.8014424669493" />
<vehicle id="type1_247" type="type1" route="es" depart="489.9548624199136" />
<vehicle id="type1_248" type="type1" route="ns" depart="490.0127498763587" />
<vehicle id="type1_249" type="type1" route="sw" depart="490.0379366133594" />
<vehicle id="type1_250" type="type1" route="ew" depart="491.58988587283267" />
<vehicle id="type1_251" type="type1" route="en" depart="496.1693711567651" />
<vehicle id="type1_252" type="type1" route="sw" depart="499.93907544637784" />
<vehicle id="type1_253" type="type1" route="wn" depart="501.23091992407717" />
<vehicle id="type1_254" type="type1" route="sw" depart="504.03641930928325" />
<vehicle id="type1_255" type="type1" route="ne" depart="507.67825266840646" />
<vehicle id="type1_256" type="type1" route="nw" depart="508.1240826068361" />
<vehicle id="type1_257" type="type1" route="ew" depart="508.4441391230081" />
<vehicle id="type1_258" type="type1" route="sw" depart="509.61361862131236" />
<vehicle id="type1_259" type="type1" route="es" depart="509.66432852409787" />
<vehicle id="type1_260" type="type1" route="we" depart="510.98749184970774" />
<vehicle id="type1_261" type="type1" route="ws" depart="512.2605508362211" />
<vehicle id="type1_262" type="type1" route="wn" depart="512.8654718018043" />
<vehicle id="type1_263" type="type1" route="ne" depart="514.1022684950858" />
<vehicle id="type1_264" type="type1" route="en" depart="516.7694448930424" />
<vehicle id="type1_265" type="type1" route="ew" depart="517.191747791696" />
<vehicle id="type1_266" type="type1" route="ne" depart="517.472007437174" />
<vehicle id="type1_267" type="type1" route="se" depart="517.7467601952065" />
<vehicle id="type1_268" type="type1" route="en" depart="523.9166609983715" />
<vehicle id="type1_269" type="type1" route="ew" depart="529.0675567190862" />
<vehicle id="type1_270" type="type1" route="ew" depart="535.798483227642" />
<vehicle id="type1_271" type="type1" route="ew" depart="536.5349066103545" />
<vehicle id="type1_272" type="type1" route="ew" depart="536.6405246304888" />
<vehicle id="type1_273" type="type1" route="se" depart="536.840361775062" />
<vehicle id="type1_274" type="type1" route="wn" depart="539.5039672544124" />
<vehicle id="type1_275" type="type1" route="ew" depart="539.9857784049905" />
<vehicle id="type1_276" type="type1" route="ws" depart="542.1327149105559" />
<vehicle id="type1_277" type="type1" route="ne" depart="544.748550445466" />
<vehicle id="emv_2" type="rescue" route="wn" depart="547.3298533159744" />
<vehicle id="type1_278" type="type1" route="ws" depart="550.4877526135253" />
<vehicle id="emv_3" type="rescue" route="we" depart="551.1598485306807" />
<vehicle id="type1_279" type="type1" route="we" depart="563.1648519076479" />
<vehicle id="type1_280" type="type1" route="es" depart="566.905574319372" />
<vehicle id="type1_281" type="type1" route="ew" depart="568.5428533102071" />
<vehicle id="type1_282" type="type1" route="ne" depart="572.8852337220477" />
<vehicle id="type1_283" type="type1" route="es" depart="573.053264860403" />
<vehicle id="type1_284" type="type1" route="en" depart="573.4584220127401" />
<vehicle id="type1_285" type="type1" route="wn" depart="574.0800651227601" />
<vehicle id="type1_286" type="type1" route="wn" depart="575.5093605537935" />
<vehicle id="type1_287" type="type1" route="wn" depart="584.4304797212968" />
<vehicle id="type1_288" type="type1" route="nw" depart="590.4469883372984" />
<vehicle id="type1_289" type="type1" route="es" depart="591.8318584455591" />
<vehicle id="type1_290" type="type1" route="en" depart="591.8544976387763" />
<vehicle id="type1_291" type="type1" route="we" depart="595.062677403262" />
<vehicle id="type1_292" type="type1" route="en" depart="597.2767663168787" />
<vehicle id="type1_293" type="type1" route="se" depart="598.8991274103165" />
<vehicle id="type1_294" type="type1" route="se" depart="601.444238016994" />
<vehicle id="type1_295" type="type1" route="we" depart="613.3026690204385" />
<vehicle id="emv_4" type="rescue" route="wn" depart="617.0808093244293" />
<vehicle id="type1_296" type="type1" route="nw" depart="617.3760430002865" />
<vehicle id="type1_297" type="type1" route="we" depart="619.4351219352714" />
<vehicle id="type1_298" type="type1" route="nw" depart="619.6005993319926" />
<vehicle id="type1_299" type="type1" route="sw" depart="619.8218112756659" />
<vehicle id="type1_300" type="type1" route="ne" depart="620.6921566181127" />
<vehicle id="type1_301" type="type1" route="ws" depart="620.7648027738254" />
<vehicle id="type1_302" type="type1" route="sn" depart="623.3157279015368" />
<vehicle id="type1_303" type="type1" route="ns" depart="626.7520609620636" />
<vehicle id="type1_304" type="type1" route="ws" depart="631.7095397479533" />
<vehicle id="type1_305" type="type1" route="wn" depart="632.9304397586709" />
<vehicle id="type1_306" type="type1" route="ns" depart="634.6236810844036" />
<vehicle id="type1_307" type="type1" route="se" depart="636.8933003982045" />
<vehicle id="type1_308" type="type1" route="ws" depart="638.2203625897162" />
<vehicle id="type1_309" type="type1" route="sn" depart="638.7330953528899" />
<vehicle id="type1_310" type="type1" route="en" depart="639.4157232715803" />
<vehicle id="type1_311" type="type1" route="ne" depart="640.0847616831516" />
<vehicle id="type1_312" type="type1" route="es" depart="640.9320115193067" />
<vehicle id="type1_313" type="type1" route="se" depart="646.4809101621714" />
<vehicle id="type1_314" type="type1" route="en" depart="646.6144224553449" />
<vehicle id="type1_315" type="type1" route="we" depart="647.2305439974914" />
<vehicle id="type1_316" type="type1" route="nw" depart="649.1997774256153" />
<vehicle id="type1_317" type="type1" route="se" depart="649.8263231266609" />
<vehicle id="type1_318" type="type1" route="wn" depart="650.4659970595358" />
<vehicle id="type1_319" type="type1" route="wn" depart="653.2950515558039" />
<vehicle id="type1_320" type="type1" route="ne" depart="657.139292562593" />
<vehicle id="type1_321" type="type1" route="wn" depart="659.2339416148546" />
<vehicle id="type1_322" type="type1" route="we" depart="662.0542097753923" />
<vehicle id="type1_323" type="type1" route="es" depart="663.1141879345154" />
<vehicle id="type1_324" type="type1" route="we" depart="663.5641626771124" />
<vehicle id="type1_325" type="type1" route="wn" depart="663.8494227336546" />
<vehicle id="type1_326" type="type1" route="en" depart="668.449449501452" />
<vehicle id="type1_327" type="type1" route="es" depart="673.0847558671597" />
<vehicle id="type1_328" type="type1" route="we" depart="673.2756780600903" />
<vehicle id="type1_329" type="type1" route="nw" depart="675.3349584355864" />
<vehicle id="type1_330" type="type1" route="ws" depart="678.1479426559596" />
<vehicle id="type1_331" type="type1" route="we" depart="681.7860041434379" />
<vehicle id="type1_332" type="type1" route="se" depart="683.4141438638385" />
<vehicle id="type1_333" type="type1" route="ns" depart="688.9627273687544" />
<vehicle id="type1_334" type="type1" route="wn" depart="689.9810872085253" />
<vehicle id="type1_335" type="type1" route="sw" depart="691.4215909232921" />
<vehicle id="type1_336" type="type1" route="ws" depart="694.7526020068184" />
<vehicle id="type1_337" type="type1" route="es" depart="695.2954091192579" />
<vehicle id="type1_338" type="type1" route="ne" depart="695.5907452816732" />
<vehicle id="type1_339" type="type1" route="ws" depart="697.0138755835576" />
<vehicle id="type1_340" type="type1" route="ew" depart="697.2986213646933" />
<vehicle id="type1_341" type="type1" route="nw" depart="697.306718689943" />
<vehicle id="type1_342" type="type1" route="ws" depart="698.3706992926412" />
<vehicle id="type1_343" type="type1" route="ew" depart="699.1473889612512" />
<vehicle id="type1_344" type="type1" route="we" depart="701.4709462507532" />
<vehicle id="type1_345" type="type1" route="nw" depart="703.9051216765763" />
<vehicle id="type1_346" type="type1" route="we" depart="707.176220597145" />
<vehicle id="type1_347" type="type1" route="ew" depart="709.6086629176899" />
<vehicle id="type1_348" type="type1" route="wn" depart="711.5980269051702" />
<vehicle id="type1_349" type="type1" route="ne" depart="712.5612340626042" />
<vehicle id="type1_350" type="type1" route="wn" depart="713.447634052855" />
<vehicle id="type1_351" type="type1" route="sn" depart="721.1444231092004" />
<vehicle id="type1_352" type="type1" route="wn" depart="723.6390351961861" />
<vehicle id="type1_353" type="type1" route="se" depart="727.0644258825614" />
<vehicle id="type1_354" type="type1" route="ne" depart="728.1948010780819" />
<vehicle id="type1_355" type="type1" route="ws" depart="729.0606099483157" />
<vehicle id="type1_356" type="type1" route="wn" depart="738.8083740277011" />
<vehicle id="type1_357" type="type1" route="sn" depart="741.0140170204158" />
<vehicle id="type1_358" type="type1" route="nw" depart="743.9045482990152" />
<vehicle id="type1_359" type="type1" route="we" depart="744.636287643564" />
<vehicle id="type1_360" type="type1" route="ws" depart="745.6701369199394" />
<vehicle id="emv_5" type="rescue" route="es" depart="746.214508543759" />
<vehicle id="type1_361" type="type1" route="sn" depart="755.7445361443207" />