<routes>
            <vType id="type1" accel="0.8" decel="4.5" sigma="0.5" length="5" maxSpeed="70"/>
            <vType id="rescue" vClass="emergency" speedFactor="1.5" guiShape="emergency">
                <param key="has.bluelight.device" value="true"/>
            </vType>
            <route id="ne" edges="ni eo"/>
            <route id="ns" edges="ni so"/>
            <route id="nw" edges="ni wo"/>
            <route id="en" edges="ei no"/>
            <route id="es" edges="ei so"/>
            <route id="ew" edges="ei wo"/>
            <route id="sn" edges="si no"/>
            <route id="se" edges="si eo"/>
            <route id="sw" edges="si wo"/>
            <route id="wn" edges="wi no"/>
            <route id="we" edges="wi eo"/>
            <route id="ws" edges="wi so"/>
        
            <personFlow id="p_sn" begin="0" end="100" period="50">
                <walk route="sn"/>
            </personFlow>
                         
            <personFlow id="p_we" begin="0" end="100" period="50">
                <walk route="we"/>
            </personFlow>
                         
            <personFlow id="p_ns" begin="0" end="100" period="50">
                <walk route="ns"/>
            </personFlow>
                         
            <personFlow id="p_ew" begin="0" end="100" period="50">
                <walk route="ew"/>
            </personFlow>
                         <vehicle id="type1_1" type="type1" route="wn" depart="0.6630309467975903" />
<vehicle id="type1_2" type="type1" route="sw" depart="3.530309884445593" />
<vehicle id="type1_3" type="type1" route="we" depart="6.158878156642454" />
<vehicle id="type1_4" type="type1" route="en" depart="16.726057098319995" />
<vehicle id="type1_5" type="type1" route="ne" depart="17.672902729419985" />
<vehicle id="type1_6" type="type1" route="sw" depart="19.63560111004724" />
<vehicle id="type1_7" type="type1" route="sn" depart="19.641174773780033" />
<vehicle id="type1_8" type="type1" route="we" depart="21.730619561794025" />
<vehicle id="type1_9" type="type1" route="we" depart="22.682821926587764" />
<vehicle id="type1_10" type="type1" route="es" depart="28.9075688331464" />
<vehicle id="type1_11" type="type1" route="ws" depart="30.52445856112892" />
<vehicle id="type1_12" type="type1" route="ne" depart="32.95192679960369" />
<vehicle id="type1_13" type="type1" route="ns" depart="33.734071448576024" />
<vehicle id="type1_14" type="type1" route="es" depart="35.36847240318956" />
<vehicle id="type1_15" type="type1" route="sn" depart="37.18103241477982" />
<vehicle id="type1_16" type="type1" route="ne" depart="37.94501117840857" />
<vehicle id="type1_17" type="type1" route="ns" depart="41.951888177376745" />
<vehicle id="type1_18" type="type1" route="ew" depart="44.35921678196342" />
<vehicle id="type1_19" type="type1" route="wn" depart="45.72412204025301" />
<vehicle id="type1_20" type="type1" route="ew" depart="46.705542361672755" />
<vehicle id="type1_21" type="type1" route="wn" depart="46.717458532445406" />
<vehicle id="type1_22" type="type1" route="nw" depart="47.67334545632282" />
<vehicle id="type1_23" type="type1" route="sn" depart="49.0693387725147" />
<vehicle id="type1_24" type="type1" route="se" depart="50.548767310877956" />
<vehicle id="type1_25" type="type1" route="ws" depart="50.75974023910534" />
<vehicle id="type1_26" type="type1" route="wn" depart="51.2774701056781" />
<vehicle id="type1_27" type="type1" route="ns" depart="51.62675307412458" />
<vehicle id="type1_28" type="type1" route="ew" depart="52.028209891209734" />
<vehicle id="type1_29" type="type1" route="ew" depart="56.63254639748888" />
<vehicle id="emv_1" type="rescue" route="en" depart="60.011269284004754" />
<vehicle id="type1_30" type="type1" route="we" depart="62.46883960268981" />
<vehicle id="type1_31" type="type1" route="nw" depart="62.95163925427165" />
<vehicle id="type1_32" type="type1" route="nw" depart="67.23662340390727" />
<vehicle id="emv_2" type="rescue" route="nw" depart="70.22485690990979" />
<vehicle id="type1_33" type="type1" route="sw" depart="72.41581308605359" />
<vehicle id="type1_34" type="type1" route="wn" depart="72.49517804356637" />
<vehicle id="type1_35" type="type1" route="ne" depart="73.70430681104483" />
<vehicle id="type1_36" type="type1" route="nw" depart="75.01083121063618" />
<vehicle id="type1_37" type="type1" route="en" depart="76.95508016461275" />
<vehicle id="type1_38" type="type1" route="sw" depart="81.07023571290019" />
<vehicle id="type1_39" type="type1" route="nw" depart="82.03059415878037" />
<vehicle id="type1_40" type="type1" route="ws" depart="85.72925803620865" />
<vehicle id="type1_41" type="type1" route="ns" depart="87.58260003865041" />
<vehicle id="type1_42" type="type1" route="en" depart="90.62101039788502" />
<vehicle id="type1_43" type="type1" route="sn" depart="92.04069580417284" />
<vehicle id="type1_44" type="type1" route="se" depart="94.30766084835862" />
<vehicle id="type1_45" type="type1" route="se" depart="94.71042799598524" />
<vehicle id="type1_46" type="type1" route="we" depart="95.98205909628996" />
<vehicle id="type1_47" type="type1" route="nw" depart="96.87466275612002" />
<vehicle id="type1_48" type="type1" route="nw" depart="98.95945195788623" />
<vehicle id="type1_49" type="type1" route="sn" depart="106.71046147145447" />
<vehicle id="type1_50" type="type1" route="se" depart="114.36751058536227" />
<vehicle id="type1_51" type="type1" route="ne" depart="115.12816860886517" />
<vehicle id="type1_52" type="type1" route="wn" depart="121.42125564823273" />
<vehicle id="type1_53" type="type1" route="sn" depart="121.68070157776681" />
<vehicle id="type1_54" type="type1" route="wn" depart="125.4313507291921" />
<vehicle id="type1_55" type="type1" route="ew" depart="132.4797781423185" />
<vehicle id="type1_56" type="type1" route="en" depart="138.2763490461688" />
<vehicle id="type1_57" type="type1" route="we" depart="138.81739836441128" />
<vehicle id="type1_58" type="type1" route="ws" depart="140.72096586452074" />
<vehicle id="type1_59" type="type1" route="nw" depart="142.494996623541" />
<vehicle id="type1_60" type="type1" route="ne" depart="143.74540965402088" />
<vehicle id="type1_61" type="type1" route="ns" depart="144.05415948581643" />
<vehicle id="type1_62" type="type1" route="sw" depart="146.5756711102518" />
<vehicle id="type1_63" type="type1" route="es" depart="151.52053341087858" />
<vehicle id="type1_64" type="type1" route="ns" depart="152.41778024358462" />
<vehicle id="type1_65" type="type1" route="ws" depart="155.07173649506825" />
<vehicle id="type1_66" type="type1" route="ne" depart="156.15609125583217" />
<vehicle id="type1_67" type="type1" route="ne" depart="158.37888808985255" />
<vehicle id="type1_68" type="type1" route="ew" depart="159.36779465048488" />
<vehicle id="type1_69" type="type1" route="en" depart="160.15224401646853" />
<vehicle id="type1_70" type="type1" route="nw" depart="160.65255176214555" />
<vehicle id="type1_71" type="type1" route="wn" depart="163.03321029734622" />
<vehicle id="type1_72" type="type1" route="wn" depart="163.16064234600435" />
<vehicle id="type1_73" type="type1" route="nw" depart="163.29821452278279" />
<vehicle id="type1_74" type="type1" route="sw" depart="164.84913937821986" />
<vehicle id="type1_75" type="type1" route="nw" depart="168.66579582023343" />
<vehicle id="type1_76" type="type1" route="ew" depart="171.10127585877814" />
<vehicle id="type1_77" type="type1" route="sw" depart="173.63963733780807" />
<vehicle id="type1_78" type="type1" route="ew" depart="174.47384153008943" />
<vehicle id="type1_79" type="type1" route="sn" depart="174.65760549949346" />
<vehicle id="type1_80" type="type1" route="ne" depart="185.01332808693638" />
<vehicle id="type1_81" type="type1" route="ne" depart="186.6390445882076" />
<vehicle id="type1_82" type="type1" route="ns" depart="189.85540235911947" />
<vehicle id="type1_83" type="type1" route="en" depart="191.0267275600022" />
<vehicle id="emv_3" type="rescue" route="ew" depart="192.0326054856626" />
<vehicle id="type1_84" type="type1" route="sw" depart="193.062994155569" />
<vehicle id="type1_85" type="type1" route="se" depart="195.00205558092563" />
<vehicle id="type1_86" type="type1" route="sw" depart="195.34127930551065" />
<vehicle id="type1_87" type="type1" route="ew" depart="195.82646825919392" />
<vehicle id="type1_88" type="type1" route="ns" depart="196.54486086483874" />
<vehicle id="type1_89" type="type1" route="ws" depart="201.36637929758095" />
<vehicle id="type1_90" type="type1" route="wn" depart="202.20239889133148" />
<vehicle id="type1_91" type="type1" route="ws" depart="202.6915362590424" />
<vehicle id="type1_92" type="type1" route="ns" depart="205.54406475756892" />
<vehicle id="type1_93" type="type1" route="wn" depart="206.19552723369912" />
<vehicle id="type1_94" type="type1" route="ew" depart="209.59161720541832" />
<vehicle id="type1_95" type="type1" route="sw" depart="210.13832179712077" />
<vehicle id="type1_96" type="type1" route="ne" depart="214.9634213087551" />
<vehicle id="type1_97" type="type1" route="es" depart="215.48986744218587" />
<vehicle id="type1_98" type="type1" route="es" depart="217.3049131249754" />
<vehicle id="type1_99" type="type1" route="nw" depart="217.99168483552626" />
<vehicle id="type1_100" type="type1" route="en" depart="219.31959803573156" />
<vehicle id="emv_4" type="rescue" route="es" depart="224.22564335769795" />
<vehicle id="type1_101" type="type1" route="ns" depart="226.12154627819956" />
<vehicle id="type1_102" type="type1" route="sn" depart="226.6953343144133" />
<vehicle id="type1_103" type="type1" route="sn" depart="230.25628845503198" />
<vehicle id="type1_104" type="type1" route="we" depart="231.63628906620704" />
<vehicle id="type1_105" type="type1" route="es" depart="232.56437966747018" />
<vehicle id="type1_106" type="type1" route="ew" depart="234.24045750267942" />
<vehicle id="type1_107" type="type1" route="wn" depart="239.4246271770984" />
<vehicle id="type1_108" type="type1" route="nw" depart="240.3861997564654" />
<vehicle id="type1_109" type="type1" route="ws" depart="242.84958484386596" />
<vehicle id="type1_110" type="type1" route="nw" depart="245.04649615792357" />
<vehicle id="type1_111" type="type1" route="sn" depart="248.10513638529227" />
<vehicle id="type1_112" type="type1" route="wn" depart="249.34224145186798" />
<vehicle id="type1_113" type="type1" route="ne" depart="250.5307480382608" />
<vehicle id="type1_114" type="type1" route="es" depart="252.76069402273583" />
<vehicle id="type1_115" type="type1" route="ew" depart="253.2630190116604" />
<vehicle id="type1_116" type="type1" route="ns" depart="255.24384699839166" />
<vehicle id="type1_117" type="type1" route="we" depart="257.4562991081941" />
<vehicle id="type1_118" type="type1" route="wn" depart="263.45345758294053" />
<vehicle id="type1_119" type="type1" route="ws" depart="264.72467638208366" />
<vehicle id="type1_120" type="type1" route="wn" depart="265.65599705898563" />
<vehicle id="type1_121" type="type1" route="wn" depart="268.0429423384228" />
<vehicle id="type1_122" type="type1" route="en" depart="270.28343259672477" />
<vehicle id="type1_123" type="type1" route="ns" depart="271.34878078283054" />
<vehicle id="type1_124" type="type1" route="wn" depart="273.90850513945526" />
<vehicle id="type1_125" type="type1" route="we" depart="275.1503053669784" />
<vehicle id="type1_126" type="type1" route="sw" depart="276.63994101975294" />
<vehicle id="type1_127" type="type1" route="se" depart="278.19974987107514" />
<vehicle id="type1_128" type="type1" route="ws" depart="279.16894398893015" />
<vehicle id="type1_129" type="type1" route="ew" depart="279.7146220454607" />
<vehicle id="type1_130" type="type1" route="wn" depart="280.5160331682311" />
<vehicle id="type1_131" type="type1" route="ne" depart="282.32545607648535" />
<vehicle id="type1_132" type="type1" route="wn" depart="284.83815083319416" />
<vehicle id="type1_133" type="type1" route="we" depart="286.15830116056304" />
<vehicle id="type1_134" type="type1" route="es" depart="287.513605112937" />
<vehicle id="type1_135" type="type1" route="se" depart="288.43574901651976" />
<vehicle id="type1_136" type="type1" route="sn" depart="288.7645318296486" />
<vehicle id="type1_137" type="type1" route="ns" depart="289.70799877177086" />
<vehicle id="type1_138" type="type1" route="we" depart="290.6409670902031" />
<vehicle id="type1_139" type="type1" route="es" depart="292.41706062892536" />
<vehicle id="type1_140" type="type1" route="ew" depart="292.8474740078084" />
<vehicle id="type1_141" type="type1" route="ws" depart="294.47781559407673" />
<vehicle id="type1_142" type="type1" route="we" depart="297.89222534959436" />
<vehicle id="type1_143" type="type1" route="en" depart="297.9121426640044" />
<vehicle id="type1_144" type="type1" route="ne" depart="300.5038210490703" />
<vehicle id="type1_145" type="type1" route="ws" depart="301.0399864948312" />
<vehicle id="type1_146" type="type1" route="we" depart="301.9893463346154" />
<vehicle id="type1_147" type="type1" route="ne" depart="304.7292253332078" />
<vehicle id="type1_148" type="type1" route="sw" depart="313.84126192754206" />
<vehicle id="type1_149" type="type1" route="ne" depart="315.87152954124105" />
<vehicle id="type1_150" type="type1" route="sw" depart="319.1727418334851" />
<vehicle id="type1_151" type="type1" route="sw" depart="321.00419853930157" />
<vehicle id="type1_152" type="type1" route="es" depart="323.568966605013" />
<vehicle id="type1_153" type="type1" route="we" depart="323.8438297383062" />
<vehicle id="type1_154" type="type1" route="se" depart="327.94434883991687" />
<vehicle id="type1_155" type="type1" route="en" depart="330.3613945332625" />
<vehicle id="type1_156" type="type1" route="we" depart="335.61967924175565" />
<vehicle id="type1_157" type="type1" route="en" depart="337.50440343647824" />
<vehicle id="type1_158" type="type1" route="se" depart="337.99050706902113" />
<vehicle id="type1_159" type="type1" route="ws" depart="338.27825956906423" />
<vehicle id="type1_160" type="type1" route="sw" depart="346.1560471572276" />
<vehicle id="type1_161" type="type1" route="ws" depart="347.0745864843166" />
<vehicle id="type1_162" type="type1" route="se" depart="347.0958496788127" />
<vehicle id="type1_163" type="type1" route="sw" depart="348.99537063254223" />
<vehicle id="type1_164" type="type1" route="ns" depart="349.76258281281963" />
<vehicle id="type1_165" type="type1" route="en" depart="351.17934756720075" />
<vehicle id="type1_166" type="type1" route="nw" depart="351.47889789112486" />
<vehicle id="type1_167" type="type1" route="es" depart="357.3451104361734" />
<vehicle id="type1_168" type="type1" route="se" depart="360.8555894047949" />
<vehicle id="type1_169" type="type1" route="ns" depart="362.14449043298157" />
<vehicle id="type1_170" type="type1" route="es" depart="363.1866757720425" />
<vehicle id="type1_171" type="type1" route="ne" depart="364.01610147971127" />
<vehicle id="type1_172" type="type1" route="sn" depart="366.39599590765215" />
<vehicle id="type1_173" type="type1" route="se" depart="368.50080796639736" />
<vehicle id="type1_174" type="type1" route="ns" depart="369.31432746275306" />
<vehicle id="emv_5" type="rescue" route="nw" depart="371.5612490709567" />
<vehicle id="type1_175" type="type1" route="ws" depart="371.649547135692" />
<vehicle id="type1_176" type="type1" route="we" depart="372.9042134542805" />
<vehicle id="type1_177" type="type1" route="sn" depart="373.3150430108263" />
<vehicle id="emv_6" type="rescue" route="es" depart="379.7525783897002" />
<vehicle id="type1_178" type="type1" route="sn" depart="380.8256055054089" />
<vehicle id="type1_179" type="type1" route="ne" depart="381.21637410928935" />
<vehicle id="type1_180" type="type1" route="ne" depart="383.81196279903065" />
<vehicle id="type1_181" type="type1" route="ne" depart="385.4406946885521" />
<vehicle id="type1_182" type="type1" route="we" depart="389.5057152073876" />
<vehicle id="type1_183" type="type1" route="ws" depart="391.93560442084896" />
<vehicle id="type1_184" type="type1" route="se" depart="394.9629620630931" />
<vehicle id="type1_185" type="type1" route="en" depart="396.9329132194839" />
<vehicle id="type1_186" type="type1" route="se" depart="397.3742761183692" />
<vehicle id="type1_187" type="type1" route="ws" depart="397.8307513014111" />
<vehicle id="type1_188" type="type1" route="we" depart="399.22796925175226" />
<vehicle id="type1_189" type="type1" route="ws" depart="399.47841562655776" />
<vehicle id="type1_190" type="type1" route="sn" depart="400.2093130227773" />
<vehicle id="type1_191" type="type1" route="ne" depart="400.8485924651094" />
<vehicle id="type1_192" type="type1" route="es" depart="401.2073682538445" />
<vehicle id="type1_193" type="type1" route="wn" depart="402.19195917455664" />
<vehicle id="type1_194" type="type1" route="se" depart="404.84639825051335" />
</routes>