<routes>
            <vType id="type1" accel="0.8" decel="4.5" sigma="0.5" length="5" maxSpeed="70"/>
            <vType id="rescue" vClass="emergency" speedFactor="1.5" guiShape="emergency">
                <param key="has.bluelight.device" value="true"/>
            </vType>
            <route id="ne" edges="ni eo"/>
            <route id="ns" edges="ni so"/>
            <route id="nw" edges="ni wo"/>
            <route id="en" edges="ei no"/>
            <route id="es" edges="ei so"/>
            <route id="ew" edges="ei wo"/>
            <route id="sn" edges="si no"/>
            <route id="se" edges="si eo"/>
            <route id="sw" edges="si wo"/>
            <route id="wn" edges="wi no"/>
            <route id="we" edges="wi eo"/>
            <route id="ws" edges="wi so"/>
        
            <personFlow id="p_ns" begin="0" end="100" period="50">
                <walk route="ns"/>
            </personFlow>
                         
            <personFlow id="p_we" begin="0" end="100" period="50">
                <walk route="we"/>
            </personFlow>
                         
            <personFlow id="p_sn" begin="0" end="100" period="50">
                <walk route="sn"/>
            </personFlow>
                         
            <personFlow id="p_ew" begin="0" end="100" period="50">
                <walk route="ew"/>
            </personFlow>
                         <vehicle id="type1_1" type="type1" route="sw" depart="0.874041886232834" />
<vehicle id="type1_2" type="type1" route="nw" depart="3.0028997160500386" />
<vehicle id="type1_3" type="type1" route="ns" depart="5.967370777219285" />
<vehicle id="type1_4" type="type1" route="we" depart="6.316654398974958" />
<vehicle id="type1_5" type="type1" route="nw" depart="7.557704672321915" />
<vehicle id="type1_6" type="type1" route="en" depart="8.360911980821067" />
<vehicle id="type1_7" type="type1" route="sn" depart="8.746967204328532" />
<vehicle id="type1_8" type="type1" route="ew" depart="8.972544581014848" />
<vehicle id="type1_9" type="type1" route="we" depart="9.597816378326852" />
<vehicle id="type1_10" type="type1" route="se" depart="11.268279409275982" />
<vehicle id="type1_11" type="type1" route="sn" depart="11.897820983232597" />
<vehicle id="emv_1" type="rescue" route="ns" depart="12.300425835314492" />
<vehicle id="type1_12" type="type1" route="ws" depart="12.534925611792188" />
<vehicle id="emv_2" type="rescue" route="ew" depart="12.720163800561854" />
<vehicle id="type1_13" type="type1" route="we" depart="13.685395285966251" />
<vehicle id="type1_14" type="type1" route="ew" depart="15.90982901264451" />
<vehicle id="emv_3" type="rescue" route="en" depart="16.255739084706793" />
<vehicle id="type1_15" type="type1" route="en" depart="17.047733943259672" />
<vehicle id="type1_16" type="type1" route="sn" depart="17.106082099961018" />
<vehicle id="type1_17" type="type1" route="ne" depart="17.956260022066296" />
<vehicle id="type1_18" type="type1" route="ne" depart="26.38758125418002" />
<vehicle id="type1_19" type="type1" route="ne" depart="26.53326318232859" />
<vehicle id="type1_20" type="type1" route="nw" depart="26.70068131576674" />
<vehicle id="type1_21" type="type1" route="ns" depart="26.755807079123823" />
<vehicle id="type1_22" type="type1" route="sn" depart="28.487721085606605" />
<vehicle id="type1_23" type="type1" route="wn" depart="31.506878532654873" />
<vehicle id="type1_24" type="type1" route="wn" depart="32.13652033768673" />
<vehicle id="type1_25" type="type1" route="ne" depart="33.96671440727494" />
<vehicle id="type1_26" type="type1" route="se" depart="34.117091706094186" />
<vehicle id="type1_27" type="type1" route="es" depart="34.87684801861858" />
<vehicle id="type1_28" type="type1" route="we" depart="35.3072456703043" />
<vehicle id="type1_29" type="type1" route="wn" depart="35.632421040048776" />
<vehicle id="type1_30" type="type1" route="nw" depart="37.60422668243469" />
<vehicle id="type1_31" type="type1" route="nw" depart="38.73789478563096" />
<vehicle id="type1_32" type="type1" route="se" depart="39.38361756398921" />
<vehicle id="type1_33" type="type1" route="nw" depart="39.97089169460475" />
<vehicle id="type1_34" type="type1" route="es" depart="44.49418575525409" />
<vehicle id="type1_35" type="type1" route="sn" depart="48.53094702371861" />
<vehicle id="type1_36" type="type1" route="ew" depart="49.16221111758273" />
<vehicle id="type1_37" type="type1" route="se" depart="49.40632972063528" />
<vehicle id="type1_38" type="type1" route="ws" depart="49.857258049407555" />
<vehicle id="type1_39" type="type1" route="es" depart="50.11428071663344" />
<vehicle id="type1_40" type="type1" route="ew" depart="50.821113611767395" />
<vehicle id="type1_41" type="type1" route="ew" depart="54.67056421539777" />
<vehicle id="type1_42" type="type1" route="es" depart="54.857153508100055" />
<vehicle id="type1_43" type="type1" route="ws" depart="55.58858752741796" />
<vehicle id="type1_44" type="type1" route="wn" depart="56.10063992652275" />
<vehicle id="type1_45" type="type1" route="en" depart="57.79619075468581" />
<vehicle id="type1_46" type="type1" route="wn" depart="57.92556387980317" />
<vehicle id="type1_47" type="type1" route="sn" depart="58.34654608065805" />
<vehicle id="type1_48" type="type1" route="ws" depart="59.41562657690111" />
<vehicle id="type1_49" type="type1" route="ns" depart="62.40142541368191" />
<vehicle id="type1_50" type="type1" route="wn" depart="62.791861275528035" />
<vehicle id="type1_51" type="type1" route="nw" depart="64.50377451673852" />
<vehicle id="type1_52" type="type1" route="nw" depart="66.78476156349444" />
<vehicle id="type1_53" type="type1" route="nw" depart="70.84696938543526" />
<vehicle id="type1_54" type="type1" route="we" depart="73.4859582602788" />
<vehicle id="type1_55" type="type1" route="se" depart="76.13324443372649" />
<vehicle id="type1_56" type="type1" route="nw" depart="77.90435580982297" />
<vehicle id="type1_57" type="type1" route="ws" depart="77.91125675295156" />
<vehicle id="type1_58" type="type1" route="ws" depart="80.56195546992308" />
<vehicle id="type1_59" type="type1" route="ns" depart="84.16184995075801" />
<vehicle id="type1_60" type="type1" route="ne" depart="84.94736655232772" />
<vehicle id="type1_61" type="type1" route="en" depart="85.93260093388152" />
<vehicle id="type1_62" type="type1" route="ne" depart="86.85937853354405" />
<vehicle id="type1_63" type="type1" route="ws" depart="89.69277179925861" />
<vehicle id="type1_64" type="type1" route="wn" depart="90.02440291248863" />
<vehicle id="type1_65" type="type1" route="nw" depart="90.34627891574496" />
<vehicle id="type1_66" type="type1" route="nw" depart="90.80154264444887" />
<vehicle id="type1_67" type="type1" route="en" depart="92.21064439534467" />
<vehicle id="type1_68" type="type1" route="ws" depart="93.63562763571619" />
<vehicle id="type1_69" type="type1" route="ew" depart="95.3008668872391" />
<vehicle id="type1_70" type="type1" route="sw" depart="110.03612445942831" />
<vehicle id="type1_71" type="type1" route="we" depart="111.01757773577843" />
<vehicle id="type1_72" type="type1" route="ns" depart="111.54864121360278" />
<vehicle id="type1_73" type="type1" route="es" depart="113.85690373974904" />
<vehicle id="type1_74" type="type1" route="sn" depart="116.499863023731" />
<vehicle id="type1_75" type="type1" route="sn" depart="117.26164212520838" />
<vehicle id="type1_76" type="type1" route="se" depart="117.81093508485499" />
<vehicle id="type1_77" type="type1" route="wn" depart="120.75357019040875" />
<vehicle id="type1_78" type="type1" route="ew" depart="126.30105155303582" />
<vehicle id="type1_79" type="type1" route="es" depart="134.386276953788" />
<vehicle id="type1_80" type="type1" route="ne" depart="137.72508573648827" />
<vehicle id="type1_81" type="type1" route="wn" depart="137.82309769203854" />
<vehicle id="type1_82" type="type1" route="ne" depart="139.72353410582076" />
<vehicle id="type1_83" type="type1" route="es" depart="141.92307670421357" />
<vehicle id="type1_84" type="type1" route="se" depart="142.04688882170822" />
<vehicle id="type1_85" type="type1" route="en" depart="146.34938011275784" />
<vehicle id="type1_86" type="type1" route="sw" depart="148.24415626273637" />
<vehicle id="type1_87" type="type1" route="ns" depart="148.32331638338277" />
<vehicle id="type1_88" type="type1" route="ew" depart="148.5609224474607" />
<vehicle id="type1_89" type="type1" route="ws" depart="150.15247442747474" />
<vehicle id="type1_90" type="type1" route="ne" depart="153.3746204538187" />
<vehicle id="type1_91" type="type1" route="nw" depart="153.55080409186326" />
<vehicle id="type1_92" type="type1" route="sw" depart="155.78108698250125" />
<vehicle id="type1_93" type="type1" route="sw" depart="159.0117417845684" />
<vehicle id="type1_94" type="type1" route="ne" depart="162.51619574903708" />
<vehicle id="type1_95" type="type1" route="ne" depart="166.48506859237347" />
<vehicle id="type1_96" type="type1" route="en" depart="169.4607007194722" />
<vehicle id="type1_97" type="type1" route="ne" depart="169.7852828700559" />
<vehicle id="type1_98" type="type1" route="ew" depart="177.36827574135486" />
<vehicle id="type1_99" type="type1" route="ew" depart="179.09765888770193" />
<vehicle id="type1_100" type="type1" route="nw" depart="179.5013125844256" />
<vehicle id="type1_101" type="type1" route="we" depart="179.5192234262112" />
<vehicle id="type1_102" type="type1" route="en" depart="181.0074451283353" />
<vehicle id="type1_103" type="type1" route="ne" depart="181.27198291016163" />
<vehicle id="type1_104" type="type1" route="sw" depart="183.68652387840288" />
<vehicle id="type1_105" type="type1" route="en" depart="184.8374014980056" />
<vehicle id="type1_106" type="type1" route="en" depart="186.4764808638367" />
<vehicle id="type1_107" type="type1" route="ws" depart="187.70778087374657" />
<vehicle id="type1_108" type="type1" route="we" depart="188.4819933730679" />
<vehicle id="type1_109" type="type1" route="we" depart="192.46795278044138" />
<vehicle id="type1_110" type="type1" route="wn" depart="195.73450341809445" />
<vehicle id="type1_111" type="type1" route="nw" depart="196.58842295505062" />
<vehicle id="emv_4" type="rescue" route="se" depart="199.23016226542714" />
<vehicle id="type1_112" type="type1" route="ne" depart="201.06808955228857" />
<vehicle id="type1_113" type="type1" route="ew" depart="201.11448820802613" />
<vehicle id="type1_114" type="type1" route="sn" depart="201.75949863957857" />
<vehicle id="type1_115" type="type1" route="wn" depart="205.41314511715694" />
<vehicle id="type1_116" type="type1" route="en" depart="206.27030117492046" />
<vehicle id="type1_117" type="type1" route="se" depart="217.62435228398581" />
<vehicle id="type1_118" type="type1" route="se" depart="217.9798741107886" />
<vehicle id="type1_119" type="type1" route="ws" depart="225.04330965391213" />
<vehicle id="type1_120" type="type1" route="es" depart="227.48267762771104" />
<vehicle id="type1_121" type="type1" route="es" depart="229.9446465563308" />
<vehicle id="type1_122" type="type1" route="es" depart="229.9448698002985" />
<vehicle id="type1_123" type="type1" route="ns" depart="234.24103641873342" />
<vehicle id="type1_124" type="type1" route="nw" depart="236.0386641511555" />
<vehicle id="type1_125" type="type1" route="nw" depart="239.139026732291" />
<vehicle id="type1_126" type="type1" route="we" depart="241.6612456250118" />
<vehicle id="type1_127" type="type1" route="se" depart="242.67080065975418" />
<vehicle id="type1_128" type="type1" route="ew" depart="243.6716302244909" />
<vehicle id="type1_129" type="type1" route="sw" depart="246.08431514795325" />
<vehicle id="type1_130" type="type1" route="ns" depart="247.0711364056686" />
<vehicle id="type1_131" type="type1" route="es" depart="252.0951700785186" />
<vehicle id="type1_132" type="type1" route="sn" depart="256.3818144178765" />
<vehicle id="type1_133" type="type1" route="en" depart="261.21545628220616" />
<vehicle id="type1_134" type="type1" route="ns" depart="261.5438478627562" />
<vehicle id="type1_135" type="type1" route="ws" depart="263.4457334150972" />
<vehicle id="type1_136" type="type1" route="ne" depart="264.37528287756174" />
<vehicle id="type1_137" type="type1" route="sn" depart="264.511328477241" />
<vehicle id="type1_138" type="type1" route="wn" depart="266.4979120955421" />
<vehicle id="type1_139" type="type1" route="ws" depart="266.55385082145597" />
<vehicle id="type1_140" type="type1" route="en" depart="268.92964248954405" />
<vehicle id="emv_5" type="rescue" route="ws" depart="269.21468731767396" />
<vehicle id="type1_141" type="type1" route="ne" depart="272.6136105666883" />
<vehicle id="type1_142" type="type1" route="se" depart="278.96251279007004" />
<vehicle id="type1_143" type="type1" route="ws" depart="287.8073321738922" />
<vehicle id="type1_144" type="type1" route="ne" depart="289.261197913148" />
<vehicle id="type1_145" type="type1" route="ns" depart="290.0524211970733" />
<vehicle id="type1_146" type="type1" route="ne" depart="290.4560902229472" />
<vehicle id="type1_147" type="type1" route="nw" depart="290.6713868214001" />
<vehicle id="type1_148" type="type1" route="sn" depart="298.39144929404586" />
<vehicle id="type1_149" type="type1" route="ws" depart="298.4924126768993" />
<vehicle id="type1_150" type="type1" route="wn" depart="302.6248554241057" />
<vehicle id="type1_151" type="type1" route="se" depart="303.96897705169187" />
<vehicle id="type1_152" type="type1" route="wn" depart="307.2838825244062" />
<vehicle id="type1_153" type="type1" route="sw" depart="308.67702136871196" />
<vehicle id="type1_154" type="type1" route="ne" depart="309.11093423615097" />
<vehicle id="type1_155" type="type1" route="we" depart="311.6044499727156" />
<vehicle id="type1_156" type="type1" route="en" depart="311.9404383158793" />
<vehicle id="type1_157" type="type1" route="se" depart="313.532928280229" />
<vehicle id="type1_158" type="type1" route="we" depart="319.425254444455" />
<vehicle id="type1_159" type="type1" route="en" depart="321.26492532483167" />
<vehicle id="type1_160" type="type1" route="sw" depart="322.6903350130152" />
<vehicle id="type1_161" type="type1" route="ne" depart="325.6539255261474" />
<vehicle id="type1_162" type="type1" route="ew" depart="327.0108073062659" />
<vehicle id="type1_163" type="type1" route="ne" depart="329.61933063704384" />
<vehicle id="type1_164" type="type1" route="wn" depart="330.331933875125" />
<vehicle id="type1_165" type="type1" route="sw" depart="335.75524993184246" />
<vehicle id="type1_166" type="type1" route="nw" depart="336.014167723034" />
<vehicle id="type1_167" type="type1" route="ns" depart="338.63128012458503" />
<vehicle id="type1_168" type="type1" route="es" depart="341.7361477923694" />
<vehicle id="type1_169" type="type1" route="en" depart="343.75441753266705" />
<vehicle id="type1_170" type="type1" route="en" depart="344.86170963055747" />
<vehicle id="type1_171" type="type1" route="se" depart="345.3716115668511" />
<vehicle id="type1_172" type="type1" route="sn" depart="348.5211783471173" />
<vehicle id="type1_173" type="type1" route="we" depart="349.9021848992108" />
<vehicle id="type1_174" type="type1" route="se" depart="351.4561725658688" />
<vehicle id="type1_175" type="type1" route="sn" depart="352.82583675619475" />
<vehicle id="type1_176" type="type1" route="se" depart="353.09457756302965" />
<vehicle id="type1_177" type="type1" route="wn" depart="353.2932600019668" />
<vehicle id="type1_178" type="type1" route="we" depart="354.5726071970305" />
<vehicle id="type1_179" type="type1" route="wn" depart="355.10849091532333" />
<vehicle id="type1_180" type="type1" route="ns" depart="355.99836859203435" />
<vehicle id="type1_181" type="type1" route="wn" depart="358.39590623245033" />
<vehicle id="emv_6" type="rescue" route="en" depart="360.0668435405805" />
<vehicle id="type1_182" type="type1" route="ne" depart="366.78936759637753" />
<vehicle id="type1_183" type="type1" route="ns" depart="369.34427380128454" />
<vehicle id="type1_184" type="type1" route="se" depart="370.8978358738998" />
<vehicle id="type1_185" type="type1" route="sw" depart="371.7163418170799" />
<vehicle id="type1_186" type="type1" route="ew" depart="377.42404778885043" />
<vehicle id="type1_187" type="type1" route="we" depart="378.26495366273804" />
<vehicle id="type1_188" type="type1" route="we" depart="381.5078502794873" />
<vehicle id="type1_189" type="type1" route="sw" depart="381.7868319467076" />
<vehicle id="type1_190" type="type1" route="ew" depart="382.91595902281597" />
<vehicle id="type1_191" type="type1" route="wn" depart="383.33662339596253" />
<vehicle id="type1_192" type="type1" route="es" depart="390.40583357351784" />
<vehicle id="type1_193" type="type1" route="ne" depart="391.1159152941139" />
<vehicle id="type1_194" type="type1" route="ew" depart="392.4770031195247" />
<vehicle id="type1_195" type="type1" route="se" depart="397.3044566552885" />
<vehicle id="type1_196" type="type1" route="ne" depart="407.47853715595454" />
<vehicle id="type1_197" type="type1" route="es" depart="407.6981553636965" />
<vehicle id="type1_198" type="type1" route="es" depart="409.34740805391203" />
<vehicle id="type1_199" type="type1" route="ws" depart="409.6652076962041" />
<vehicle id="type1_200" type="type1" route="es" depart="416.5179762007796" />
<vehicle id="type1_201" type="type1" route="we" depart="417.06450373006487" />
<vehicle id="type1_202" type="type1" route="en" depart="417.9432050169917" />
<vehicle id="type1_203" type="type1" route="en" depart="419.13598993419066" />
<vehicle id="type1_204" type="type1" route="wn" depart="422.5033037297114" />
<vehicle id="type1_205" type="type1" route="en" depart="423.82478115662036" />
<vehicle id="type1_206" type="type1" route="wn" depart="424.3910900202573" />
<vehicle id="type1_207" type="type1" route="es" depart="425.2657292819251" />
<vehicle id="type1_208" type="type1" route="ew" depart="428.55002148198236" />
<vehicle id="type1_209" type="type1" route="we" depart="428.6298162712311" />
<vehicle id="type1_210" type="type1" route="se" depart="433.0360667138656" />
<vehicle id="type1_211" type="type1" route="sw" depart="434.20632927226325" />
<vehicle id="type1_212" type="type1" route="en" depart="438.0776496651238" />
<vehicle id="type1_213" type="type1" route="ew" depart="442.65389886282225" />
<vehicle id="type1_214" type="type1" route="es" depart="444.67993386748367" />
<vehicle id="type1_215" type="type1" route="nw" depart="447.95354532146" />
<vehicle id="type1_216" type="type1" route="ew" depart="451.30648825523355" />
<vehicle id="type1_217" type="type1" route="ns" depart="452.19842535011406" />
<vehicle id="type1_218" type="type1" route="ns" depart="453.2626181232631" />
<vehicle id="type1_219" type="type1" route="sn" depart="453.3154243454269" />
<vehicle id="type1_220" type="type1" route="sw" depart="459.7155944723497" />
<vehicle id="type1_221" type="type1" route="ns" depart="459.9665101205089" />
<vehicle id="type1_222" type="type1" route="se" depart="462.7422244359928" />
<vehicle id="type1_223" type="type1" route="ew" depart="463.66448705490836" />
<vehicle id="type1_224" type="type1" route="we" depart="463.7966789127271" />
<vehicle id="type1_225" type="type1" route="ne" depart="464.0770262174181" />
<vehicle id="type1_226" type="type1" route="en" depart="464.31376357559344" />
<vehicle id="type1_227" type="type1" route="es" depart="464.9743193606184" />
<vehicle id="type1_228" type="type1" route="sw" depart="468.731999755147" />
<vehicle id="type1_229" type="type1" route="sw" depart="469.5770497459952" />
<vehicle id="type1_230" type="type1" route="ns" depart="471.1214487170539" />
<vehicle id="type1_231" type="type1" route="ns" depart="471.33374786257025" />
<vehicle id="type1_232" type="type1" route="sw" depart="473.2460545714089" />
<vehicle id="type1_233" type="type1" route="en" depart="473.486509319135" />
<vehicle id="type1_234" type="type1" route="sn" depart="474.317915054744" />
<vehicle id="type1_235" type="type1" route="en" depart="478.0283386498209" />
<vehicle id="type1_236" type="type1" route="ws" depart="484.13133049020354" />
<vehicle id="type1_237" type="type1" route="ne" depart="485.0386139081051" />
<vehicle id="type1_238" type="type1" route="sn" depart="485.1625904444494" />
<vehicle id="type1_239" type="type1" route="wn" depart="487.4831507869462" />
<vehicle id="type1_240" type="type1" route="en" depart="491.4014570483003" />
<vehicle id="type1_241" type="type1" route="nw" depart="491.98504452820765" />
<vehicle id="type1_242" type="type1" route="ws" depart="492.40459701418797" />
<vehicle id="type1_243" type="type1" route="we" depart="492.83086404397426" />
<vehicle id="type1_244" type="type1" route="we" depart="495.8429229891243" />
<vehicle id="emv_7" type="rescue" route="sn" depart="496.08286557299806" />
<vehicle id="type1_245" type="type1" route="ws" depart="502.8120227191823" />
<vehicle id="type1_246" type="type1" route="ew" depart="504.1651359733841" />
<vehicle id="type1_247" type="type1" route="sw" depart="505.88362294990884" />
<vehicle id="type1_248" type="type1" route="sn" depart="506.59360416281874" />
<vehicle id="type1_249" type="type1" route="wn" depart="506.7719503834565" />
<vehicle id="type1_250" type="type1" route="we" depart="512.7393054801712" />
<vehicle id="type1_251" type="type1" route="se" depart="513.1489376361997" />
<vehicle id="type1_252" type="type1" route="es" depart="515.1796815745163" />
<vehicle id="type1_253" type="type1" route="ne" depart="515.5485865895971" />
<vehicle id="type1_254" type="type1" route="ew" depart="521.8152630648236" />
<vehicle id="type1_255" type="type1" route="se" depart="529.1035291064669" />
<vehicle id="type1_256" type="type1" route="nw" depart="529.9743897574843" />
<vehicle id="type1_257" type="type1" route="es" depart="530.3139656657543" />
<vehicle id="type1_258" type="type1" route="nw" depart="530.6799235727892" />
<vehicle id="type1_259" type="type1" route="ws" depart="531.1159926030485" />
<vehicle id="type1_260" type="type1" route="sw" depart="533.0966822998429" />
<vehicle id="type1_261" type="type1" route="se" depart="533.9825024136838" />
<vehicle id="type1_262" type="type1" route="ws" depart="534.3277942199231" />
<vehicle id="type1_263" type="type1" route="es" depart="536.0768170371151" />
<vehicle id="type1_264" type="type1" route="wn" depart="536.1207966155694" />
<vehicle id="type1_265" type="type1" route="wn" depart="537.5358442833873" />
<vehicle id="emv_8" type="rescue" route="ws" depart="537.9549492028395" />
<vehicle id="emv_9" type="rescue" route="sw" depart="538.2428437155576" />
<vehicle id="type1_266" type="type1" route="wn" depart="539.068570442198" />
<vehicle id="type1_267" type="type1" route="se" depart="539.6316317404708" />
<vehicle id="type1_268" type="type1" route="en" depart="542.0178910086158" />
<vehicle id="type1_269" type="type1" route="ne" depart="543.5056733077204" />
<vehicle id="type1_270" type="type1" route="wn" depart="548.8099391532988" />
<vehicle id="type1_271" type="type1" route="se" depart="551.0864445548633" />
<vehicle id="type1_272" type="type1" route="es" depart="552.4219799750559" />
<vehicle id="type1_273" type="type1" route="ew" depart="558.6085371434954" />
<vehicle id="type1_274" type="type1" route="sn" depart="563.5351369212672" />
<vehicle id="type1_275" type="type1" route="ws" depart="567.6295173623578" />
<vehicle id="type1_276" type="type1" route="we" depart="568.6716508120281" />
<vehicle id="type1_277" type="type1" route="en" depart="569.5266757775736" />
<vehicle id="type1_278" type="type1" route="sw" depart="574.6492854025944" />
<vehicle id="type1_279" type="type1" route="we" depart="575.8740940085127" />
<vehicle id="emv_10" type="rescue" route="nw" depart="578.2411740577737" />
<vehicle id="type1_280" type="type1" route="wn" depart="578.4921565991223" />
<vehicle id="type1_281" type="type1" route="en" depart="579.4298032517498" />
<vehicle id="type1_282" type="type1" route="sn" depart="581.9584818943945" />
<vehicle id="type1_283" type="type1" route="sw" depart="582.2513066169735" />
<vehicle id="type1_284" type="type1" route="sn" depart="585.1069210746515" />
<vehicle id="type1_285" type="type1" route="es" depart="586.0480256549042" />
<vehicle id="type1_286" type="type1" route="ew" depart="587.9250509083262" />
<vehicle id="type1_287" type="type1" route="sn" depart="589.3656024222043" />
<vehicle id="type1_288" type="type1" route="we" depart="590.7266501118335" />
<vehicle id="type1_289" type="type1" route="es" depart="592.6972477311571" />
<vehicle id="type1_290" type="type1" route="sn" depart="594.314146433186" />
<vehicle id="type1_291" type="type1" route="ew" depart="596.9618456680016" />
<vehicle id="type1_292" type="type1" route="ns" depart="597.388002032131" />
<vehicle id="type1_293" type="type1" route="nw" depart="604.9208258588607" />
<vehicle id="type1_294" type="type1" route="ne" depart="604.9247923043989" />
<vehicle id="type1_295" type="type1" route="en" depart="606.2120322866213" />
<vehicle id="type1_296" type="type1" route="ew" depart="606.6798562473464" />
<vehicle id="type1_297" type="type1" route="sn" depart="607.163969617407" />
<vehicle id="type1_298" type="type1" route="ne" depart="608.6286017732749" />
<vehicle id="type1_299" type="type1" route="we" depart="609.3394625827523" />
<vehicle id="type1_300" type="type1" route="sn" depart="610.7831505360414" />
<vehicle id="type1_301" type="type1" route="sn" depart="616.8055290682208" />
<vehicle id="type1_302" type="type1" route="se" depart="617.7178907377995" />
<vehicle id="type1_303" type="type1" route="ew" depart="618.571410783858" />
<vehicle id="type1_304" type="type1" route="we" depart="620.0249982929062" />
<vehicle id="type1_305" type="type1" route="we" depart="624.079029779196" />
<vehicle id="type1_306" type="type1" route="we" depart="626.789170702635" />
<vehicle id="type1_307" type="type1" route="sn" depart="629.0798434859585" />
<vehicle id="type1_308" type="type1" route="sn" depart="629.3542664030504" />
<vehicle id="type1_309" type="type1" route="se" depart="630.9738615524641" />
<vehicle id="type1_310" type="type1" route="es" depart="631.4237852939137" />
<vehicle id="type1_311" type="type1" route="ws" depart="631.4978516155821" />
<vehicle id="type1_312" type="type1" route="sw" depart="631.9791754055188" />
<vehicle id="type1_313" type="type1" route="sn" depart="637.8062140713614" />
<vehicle id="type1_314" type="type1" route="wn" depart="640.7745667259201" />
<vehicle id="type1_315" type="type1" route="nw" depart="644.5842267809489" />
<vehicle id="type1_316" type="type1" route="wn" depart="644.7114891497193" />
<vehicle id="type1_317" type="type1" route="ne" depart="645.7777366087639" />
<vehicle id="type1_318" type="type1" route="we" depart="646.7349326936196" />
<vehicle id="type1_319" type="type1" route="ne" depart="649.9501893367208" />
<vehicle id="type1_320" type="type1" route="ne" depart="651.1901895130461" />
<vehicle id="type1_321" type="type1" route="wn" depart="652.8043496675989" />
<vehicle id="type1_322" type="type1" route="se" depart="654.4964148793227" />
<vehicle id="type1_323" type="type1" route="we" depart="656.1562637927509" />
<vehicle id="type1_324" type="type1" route="en" depart="661.3256253298387" />
<vehicle id="type1_325" type="type1" route="ew" depart="662.4888735259756" />
<vehicle id="type1_326" type="type1" route="nw" depart="667.9279355774598" />
<vehicle id="type1_327" type="type1" route="sw" depart="670.3079665389067" />
<vehicle id="type1_328" type="type1" route="ns" depart="671.0126060360858" />
<vehicle id="type1_329" type="type1" route="se" depart="674.3824165368884" />
<vehicle id="type1_330" type="type1" route="we" depart="676.0539501453609" />
<vehicle id="type1_331" type="type1" route="nw" depart="679.3550775120691" />
<vehicle id="type1_332" type="type1" route="ew" depart="683.718160674033" />
<vehicle id="type1_333" type="type1" route="wn" depart="686.0893580063964" />
<vehicle id="type1_334" type="type1" route="we" depart="688.8937114633554" />
<vehicle id="type1_335" type="type1" route="es" depart="698.086481051098" />
<vehicle id="type1_336" type="type1" route="ns" depart="698.8664510579486" />
<vehicle id="type1_337" type="type1" route="we" depart="699.4062817907148" />
<vehicle id="type1_338" type="type1" route="ws" depart="700.800722336542" />
<vehicle id="type1_339" type="type1" route="ns" depart="705.9728135399804" />
<vehicle id="type1_340" type="type1" route="ws" depart="706.7958658282251" />
<vehicle id="type1_341" type="type1" route="sw" depart="710.8543653708045" />
<vehicle id="type1_342" type="type1" route="wn" depart="711.8170448414129" />
<vehicle id="type1_343" type="type1" route="es" depart="716.6219480303398" />
<vehicle id="type1_344" type="type1" route="ne" depart="718.7785584769517" />
<vehicle id="type1_345" type="type1" route="es" depart="719.2638883447049" />
<vehicle id="type1_346" type="type1" route="ns" depart="721.8435912373914" />
<vehicle id="type1_347" type="type1" route="es" depart="724.7915329079184" />
<vehicle id="type1_348" type="type1" route="we" depart="725.3466821186028" />
<vehicle id="type1_349" type="type1" route="ew" depart="725.4141924654922" />
<vehicle id="type1_350" type="type1" route="se" depart="725.5196628493924" />
<vehicle id="type1_351" type="type1" route="ns" depart="731.5463769826652" />
<vehicle id="type1_352" type="type1" route="ew" depart="731.5852281542286" />
<vehicle id="type1_353" type="type1" route="ws" depart="732.5995528846485" />
<vehicle id="type1_354" type="type1" route="sn" depart="737.4372462245356" />
<vehicle id="type1_355" type="type1" route="sw" depart="738.2137825286611" />
<vehicle id="type1_356" type="type1" route="ew" depart="739.6809400078995" />
<vehicle id="type1_357" type="type1" route="ew" depart="742.0047785557981" />