<routes>
            <vType id="type1" accel="0.8" decel="4.5" sigma="0.5" length="5" maxSpeed="70"/>
            <vType id="rescue" vClass="emergency" speedFactor="1.5" guiShape="emergency">
                <param key="has.bluelight.device" value="true"/>
            </vType>
            <route id="ne" edges="ni eo"/>
            <route id="ns" edges="ni so"/>
            <route id="nw" edges="ni wo"/>
            <route id="en" edges="ei no"/>
            <route id="es" edges="ei so"/>
            <route id="ew" edges="ei wo"/>
            <route id="sn" edges="si no"/>
            <route id="se" edges="si eo"/>
            <route id="sw" edges="si wo"/>
            <route id="wn" edges="wi no"/>
            <route id="we" edges="wi eo"/>
            <route id="ws" edges="wi so"/>
        
            <personFlow id="p_ew" begin="0" end="200" period="50">
                <walk route="ew"/>
            </personFlow>
                         
            <personFlow id="p_ns" begin="0" end="200" period="50">
                <walk route="ns"/>
            </personFlow>
                         
            <personFlow id="p_sn" begin="0" end="200" period="50">
                <walk route="sn"/>
            </personFlow>
                         
            <personFlow id="p_we" begin="0" end="200" period="50">
                <walk route="we"/>
            </personFlow>
                         <vehicle id="type1_1" type="type1" route="wn" depart="0.4968825791429677" />
<vehicle id="type1_2" type="type1" route="en" depart="2.0281214425163685" />
<vehicle id="type1_3" type="type1" route="ne" depart="16.598999158885515" />
<vehicle id="type1_4" type="type1" route="wn" depart="17.23683696244957" />
<vehicle id="type1_5" type="type1" route="nw" depart="21.60296502495221" />
<vehicle id="type1_6" type="type1" route="ne" depart="27.900867221665635" />
<vehicle id="type1_7" type="type1" route="ne" depart="29.753003890067774" />
<vehicle id="type1_8" type="type1" route="sw" depart="32.375312546409845" />
<vehicle id="type1_9" type="type1" route="sn" depart="33.49657829028234" />
<vehicle id="type1_10" type="type1" route="ws" depart="33.5031008770756" />
<vehicle id="type1_11" type="type1" route="wn" depart="35.45664535330552" />
<vehicle id="type1_12" type="type1" route="ws" depart="36.99540930532807" />
<vehicle id="type1_13" type="type1" route="ne" depart="38.53754124210939" />
<vehicle id="type1_14" type="type1" route="se" depart="39.93745881787647" />
<vehicle id="type1_15" type="type1" route="wn" depart="41.271244245500384" />
<vehicle id="type1_16" type="type1" route="sw" depart="41.29002464257071" />
<vehicle id="type1_17" type="type1" route="es" depart="44.14206759895671" />
<vehicle id="type1_18" type="type1" route="ns" depart="46.126256950155934" />
<vehicle id="type1_19" type="type1" route="wn" depart="49.861349690714675" />
<vehicle id="type1_20" type="type1" route="ws" depart="50.45986250410926" />
<vehicle id="type1_21" type="type1" route="ne" depart="50.72049451548444" />
<vehicle id="type1_22" type="type1" route="ws" depart="50.980185188906574" />
<vehicle id="type1_23" type="type1" route="ne" depart="51.1606990396189" />
<vehicle id="type1_24" type="type1" route="we" depart="54.208082604667254" />
<vehicle id="type1_25" type="type1" route="es" depart="54.39977979376008" />
<vehicle id="type1_26" type="type1" route="ws" depart="55.75562247048958" />
<vehicle id="type1_27" type="type1" route="ws" depart="56.5266909624393" />
<vehicle id="type1_28" type="type1" route="sw" depart="58.73624574725478" />
<vehicle id="type1_29" type="type1" route="sw" depart="63.017589446976864" />
<vehicle id="type1_30" type="type1" route="ns" depart="64.59853904624842" />
<vehicle id="type1_31" type="type1" route="sw" depart="64.64271846870324" />
<vehicle id="type1_32" type="type1" route="ne" depart="65.14053957761934" />
<vehicle id="type1_33" type="type1" route="se" depart="65.3878581941621" />
<vehicle id="type1_34" type="type1" route="we" depart="65.81601760796487" />
<vehicle id="type1_35" type="type1" route="en" depart="66.92669798027232" />
<vehicle id="type1_36" type="type1" route="wn" depart="72.71150354652303" />
<vehicle id="type1_37" type="type1" route="ew" depart="73.60298617479752" />
<vehicle id="type1_38" type="type1" route="ws" depart="76.38239061820367" />
<vehicle id="type1_39" type="type1" route="ws" depart="78.02558580811603" />
<vehicle id="type1_40" type="type1" route="ew" depart="78.35937300237293" />
<vehicle id="type1_41" type="type1" route="ns" depart="81.33562217927211" />
<vehicle id="type1_42" type="type1" route="es" depart="82.88541884687564" />
<vehicle id="type1_43" type="type1" route="wn" depart="84.96791822982144" />
<vehicle id="type1_44" type="type1" route="nw" depart="85.36563671250883" />
<vehicle id="type1_45" type="type1" route="se" depart="87.2382744670145" />
<vehicle id="type1_46" type="type1" route="en" depart="87.60515634696903" />
<vehicle id="type1_47" type="type1" route="wn" depart="92.17390033645245" />
<vehicle id="type1_48" type="type1" route="we" depart="96.48743924539295" />
<vehicle id="type1_49" type="type1" route="ws" depart="97.31783924277762" />
<vehicle id="type1_50" type="type1" route="en" depart="98.47113980626997" />
<vehicle id="type1_51" type="type1" route="sw" depart="99.96301624370355" />
<vehicle id="type1_52" type="type1" route="en" depart="109.12553366527527" />
<vehicle id="type1_53" type="type1" route="es" depart="112.37141082066223" />
<vehicle id="type1_54" type="type1" route="ew" depart="112.76909158073364" />
<vehicle id="type1_55" type="type1" route="ne" depart="114.3039119489149" />
<vehicle id="type1_56" type="type1" route="es" depart="116.09900029249302" />
<vehicle id="type1_57" type="type1" route="wn" depart="118.2705072888815" />
<vehicle id="type1_58" type="type1" route="se" depart="119.94416098213372" />
<vehicle id="type1_59" type="type1" route="wn" depart="120.79278842824742" />
<vehicle id="type1_60" type="type1" route="ws" depart="120.91318114008229" />
<vehicle id="type1_61" type="type1" route="ns" depart="121.24690075099414" />
<vehicle id="type1_62" type="type1" route="sn" depart="123.51125946104358" />
<vehicle id="type1_63" type="type1" route="sw" depart="127.6143064413146" />
<vehicle id="type1_64" type="type1" route="ew" depart="128.94083216875742" />
<vehicle id="type1_65" type="type1" route="sn" depart="129.33641210178732" />
<vehicle id="type1_66" type="type1" route="en" depart="130.8419634854649" />
<vehicle id="type1_67" type="type1" route="wn" depart="130.9399384482263" />
<vehicle id="type1_68" type="type1" route="sn" depart="131.21803379873955" />
<vehicle id="type1_69" type="type1" route="ne" depart="132.7073517945434" />
<vehicle id="type1_70" type="type1" route="nw" depart="135.1788967377134" />
<vehicle id="type1_71" type="type1" route="ew" depart="136.99047692297773" />
<vehicle id="type1_72" type="type1" route="wn" depart="137.8064107064309" />
<vehicle id="type1_73" type="type1" route="wn" depart="141.3154200943111" />
<vehicle id="type1_74" type="type1" route="ws" depart="142.98211379523028" />
<vehicle id="type1_75" type="type1" route="nw" depart="143.36271087925243" />
<vehicle id="type1_76" type="type1" route="sw" depart="148.1298004613842" />
<vehicle id="type1_77" type="type1" route="we" depart="148.13787225773342" />
<vehicle id="type1_78" type="type1" route="ns" depart="149.35044737039684" />
<vehicle id="type1_79" type="type1" route="ns" depart="150.34593098734013" />
<vehicle id="type1_80" type="type1" route="ew" depart="153.23740249181907" />
<vehicle id="type1_81" type="type1" route="sn" depart="155.68133767193729" />
<vehicle id="type1_82" type="type1" route="ws" depart="157.6235994612539" />
<vehicle id="type1_83" type="type1" route="en" depart="160.1694434853691" />
<vehicle id="type1_84" type="type1" route="sw" depart="160.30902827088457" />
<vehicle id="type1_85" type="type1" route="ne" depart="163.0480213180989" />
<vehicle id="type1_86" type="type1" route="wn" depart="165.89670249602125" />
<vehicle id="type1_87" type="type1" route="nw" depart="165.90015590835327" />
<vehicle id="type1_88" type="type1" route="sn" depart="168.2471424496873" />
<vehicle id="type1_89" type="type1" route="ew" depart="170.36362917964797" />
<vehicle id="type1_90" type="type1" route="ns" depart="171.590884494513" />
<vehicle id="type1_91" type="type1" route="ws" depart="173.5344217403577" />
<vehicle id="type1_92" type="type1" route="ne" depart="174.3941174661713" />
<vehicle id="emv_1" type="rescue" route="sn" depart="178.07700157461684" />
<vehicle id="type1_93" type="type1" route="ws" depart="178.14592865287995" />
<vehicle id="type1_94" type="type1" route="ew" depart="179.7608385730395" />
<vehicle id="type1_95" type="type1" route="es" depart="182.47467986454782" />
<vehicle id="type1_96" type="type1" route="we" depart="183.33239994232193" />
<vehicle id="type1_97" type="type1" route="ns" depart="184.7809125511796" />
<vehicle id="type1_98" type="type1" route="es" depart="185.27997285481155" />
<vehicle id="type1_99" type="type1" route="ns" depart="187.01183614632833" />
<vehicle id="type1_100" type="type1" route="ne" depart="188.65111928570087" />
<vehicle id="type1_101" type="type1" route="en" depart="190.37979189703762" />
<vehicle id="type1_102" type="type1" route="ws" depart="195.13793518898086" />
<vehicle id="type1_103" type="type1" route="es" depart="196.10898968771923" />
<vehicle id="type1_104" type="type1" route="sw" depart="196.89888147838008" />
<vehicle id="type1_105" type="type1" route="nw" depart="200.89754799331033" />
<vehicle id="type1_106" type="type1" route="se" depart="201.4499462614535" />
<vehicle id="type1_107" type="type1" route="en" depart="208.46189303622637" />
<vehicle id="type1_108" type="type1" route="ew" depart="209.04399050590163" />
<vehicle id="type1_109" type="type1" route="ns" depart="210.56391777229373" />
<vehicle id="type1_110" type="type1" route="nw" depart="211.53858689774285" />
<vehicle id="type1_111" type="type1" route="ne" depart="212.64689257872246" />
<vehicle id="type1_112" type="type1" route="sw" depart="213.05461291096688" />
<vehicle id="type1_113" type="type1" route="se" depart="215.05084576650034" />
<vehicle id="type1_114" type="type1" route="ns" depart="216.53238351606393" />
<vehicle id="type1_115" type="type1" route="en" depart="218.6862398273048" />
<vehicle id="type1_116" type="type1" route="sn" depart="220.08061435178806" />
<vehicle id="type1_117" type="type1" route="sw" depart="220.66163051731667" />
<vehicle id="type1_118" type="type1" route="es" depart="222.94605122471327" />
<vehicle id="type1_119" type="type1" route="we" depart="223.30362470368468" />
<vehicle id="type1_120" type="type1" route="ne" depart="223.4735732420744" />
<vehicle id="type1_121" type="type1" route="se" depart="225.47838389499182" />
<vehicle id="type1_122" type="type1" route="sw" depart="225.75457695914892" />
<vehicle id="type1_123" type="type1" route="wn" depart="226.10631149514612" />
<vehicle id="type1_124" type="type1" route="we" depart="226.22777689336533" />
<vehicle id="type1_125" type="type1" route="we" depart="227.79610658534025" />
<vehicle id="type1_126" type="type1" route="en" depart="231.7594342207919" />
<vehicle id="type1_127" type="type1" route="ws" depart="233.03717933534443" />
<vehicle id="type1_128" type="type1" route="se" depart="233.45345667376594" />
<vehicle id="type1_129" type="type1" route="se" depart="239.92641150252294" />
<vehicle id="type1_130" type="type1" route="nw" depart="243.42848673555875" />
<vehicle id="type1_131" type="type1" route="nw" depart="246.30708323808253" />
<vehicle id="type1_132" type="type1" route="en" depart="247.2660643509526" />
<vehicle id="emv_2" type="rescue" route="ns" depart="249.2897709447152" />
<vehicle id="type1_133" type="type1" route="en" depart="250.68053952903745" />
<vehicle id="type1_134" type="type1" route="en" depart="251.52809969283848" />
<vehicle id="type1_135" type="type1" route="sn" depart="254.49344381167222" />
<vehicle id="type1_136" type="type1" route="ne" depart="257.1303592929503" />
<vehicle id="type1_137" type="type1" route="ns" depart="257.75335106874263" />
<vehicle id="type1_138" type="type1" route="sn" depart="258.8020358830345" />
<vehicle id="type1_139" type="type1" route="we" depart="259.19794858387854" />
<vehicle id="type1_140" type="type1" route="se" depart="259.3885285745651" />
<vehicle id="type1_141" type="type1" route="en" depart="259.4345146896383" />
<vehicle id="type1_142" type="type1" route="ws" depart="260.3786086879314" />
<vehicle id="type1_143" type="type1" route="ew" depart="261.03273893984493" />
<vehicle id="type1_144" type="type1" route="nw" depart="266.261063711895" />
<vehicle id="type1_145" type="type1" route="ns" depart="266.5235343895568" />
<vehicle id="type1_146" type="type1" route="wn" depart="268.5416456992547" />
<vehicle id="type1_147" type="type1" route="nw" depart="269.6024572678087" />
<vehicle id="type1_148" type="type1" route="ns" depart="269.81276504878304" />
<vehicle id="type1_149" type="type1" route="we" depart="272.2490103748365" />
<vehicle id="type1_150" type="type1" route="en" depart="272.97934535464253" />
<vehicle id="type1_151" type="type1" route="sw" depart="278.7578465063901" />
<vehicle id="type1_152" type="type1" route="ws" depart="283.2121659462846" />
<vehicle id="type1_153" type="type1" route="es" depart="284.1589249275513" />
<vehicle id="type1_154" type="type1" route="we" depart="284.3075697089123" />
<vehicle id="type1_155" type="type1" route="es" depart="289.4841951817008" />
<vehicle id="type1_156" type="type1" route="sn" depart="296.1351127800788" />
<vehicle id="type1_157" type="type1" route="sn" depart="303.05527577620217" />
<vehicle id="type1_158" type="type1" route="en" depart="304.4877651747318" />
<vehicle id="type1_159" type="type1" route="nw" depart="306.6580872252211" />
<vehicle id="type1_160" type="type1" route="sw" depart="306.9703729893149" />
<vehicle id="type1_161" type="type1" route="se" depart="309.1878329732041" />
<vehicle id="type1_162" type="type1" route="sn" depart="315.68876845467315" />
<vehicle id="type1_163" type="type1" route="ne" depart="316.7403602211665" />
<vehicle id="type1_164" type="type1" route="en" depart="316.8074977457342" />
<vehicle id="type1_165" type="type1" route="sw" depart="318.75502032753633" />
<vehicle id="type1_166" type="type1" route="en" depart="318.88792053762967" />
<vehicle id="type1_167" type="type1" route="ne" depart="321.88308833357894" />
<vehicle id="type1_168" type="type1" route="en" depart="325.89389036803504" />
<vehicle id="type1_169" type="type1" route="se" depart="327.87890567082275" />
<vehicle id="type1_170" type="type1" route="ne" depart="329.21595413056457" />
<vehicle id="type1_171" type="type1" route="sn" depart="332.4974728641507" />
<vehicle id="type1_172" type="type1" route="we" depart="336.07725312867035" />
<vehicle id="type1_173" type="type1" route="ew" depart="336.30354410304454" />
<vehicle id="type1_174" type="type1" route="es" depart="336.92120796722065" />
<vehicle id="type1_175" type="type1" route="wn" depart="339.6120400433406" />
<vehicle id="type1_176" type="type1" route="se" depart="344.2099397114413" />
<vehicle id="type1_177" type="type1" route="nw" depart="344.8078219539885" />
<vehicle id="type1_178" type="type1" route="we" depart="345.6813440931357" />
<vehicle id="type1_179" type="type1" route="sn" depart="346.1972011573363" />
<vehicle id="type1_180" type="type1" route="en" depart="346.69859169618644" />
<vehicle id="type1_181" type="type1" route="se" depart="348.22633979699697" />
<vehicle id="type1_182" type="type1" route="sw" depart="348.23213796331294" />
<vehicle id="type1_183" type="type1" route="sw" depart="350.7229179617981" />
<vehicle id="type1_184" type="type1" route="se" depart="350.9287538606758" />
<vehicle id="type1_185" type="type1" route="ew" depart="352.0720079058315" />
<vehicle id="type1_186" type="type1" route="ne" depart="352.14989663499057" />
<vehicle id="type1_187" type="type1" route="en" depart="352.3940481168407" />
<vehicle id="type1_188" type="type1" route="ne" depart="353.8573795850868" />
<vehicle id="type1_189" type="type1" route="ns" depart="356.68956527687806" />
<vehicle id="type1_190" type="type1" route="nw" depart="357.682435362785" />
<vehicle id="type1_191" type="type1" route="ew" depart="358.36244982644905" />
<vehicle id="type1_192" type="type1" route="es" depart="364.6937118370459" />
<vehicle id="type1_193" type="type1" route="nw" depart="366.34779889789235" />
<vehicle id="type1_194" type="type1" route="es" depart="371.04438319756196" />
<vehicle id="type1_195" type="type1" route="ne" depart="371.2899155633272" />
<vehicle id="type1_196" type="type1" route="se" depart="380.7198210526366" />
<vehicle id="type1_197" type="type1" route="en" depart="382.66581461410567" />
<vehicle id="type1_198" type="type1" route="wn" depart="383.2201510881361" />
<vehicle id="type1_199" type="type1" route="sn" depart="383.47063066755123" />
<vehicle id="type1_200" type="type1" route="nw" depart="383.7251630509372" />
<vehicle id="type1_201" type="type1" route="wn" depart="385.05079170431685" />
<vehicle id="type1_202" type="type1" route="ws" depart="387.3579291940638" />
<vehicle id="type1_203" type="type1" route="ns" depart="389.74667221280504" />
<vehicle id="type1_204" type="type1" route="ne" depart="390.2826116524167" />
<vehicle id="type1_205" type="type1" route="wn" depart="390.5081450026863" />
<vehicle id="type1_206" type="type1" route="we" depart="390.6709950081391" />
<vehicle id="type1_207" type="type1" route="wn" depart="391.3042187137246" />
<vehicle id="type1_208" type="type1" route="se" depart="392.6996465944689" />
<vehicle id="type1_209" type="type1" route="wn" depart="392.80588184391024" />
<vehicle id="type1_210" type="type1" route="wn" depart="393.49362515952413" />
<vehicle id="type1_211" type="type1" route="ws" depart="394.2846553584863" />
<vehicle id="type1_212" type="type1" route="ns" depart="394.8310479204205" />
<vehicle id="type1_213" type="type1" route="wn" depart="395.631869784779" />
<vehicle id="type1_214" type="type1" route="ns" depart="398.6365692547357" />
<vehicle id="type1_215" type="type1" route="es" depart="399.2355846655412" />
<vehicle id="type1_216" type="type1" route="sw" depart="399.58875911481135" />
<vehicle id="type1_217" type="type1" route="ns" depart="400.31951694601423" />
<vehicle id="type1_218" type="type1" route="we" depart="400.87800490236197" />
<vehicle id="type1_219" type="type1" route="ns" depart="402.14513529045126" />
<vehicle id="type1_220" type="type1" route="es" depart="403.73356214166233" />
<vehicle id="type1_221" type="type1" route="es" depart="405.5519987486157" />
<vehicle id="type1_222" type="type1" route="ew" depart="409.0360929479916" />
<vehicle id="type1_223" type="type1" route="sn" depart="409.5661301465284" />
<vehicle id="type1_224" type="type1" route="nw" depart="409.92248731060823" />
<vehicle id="type1_225" type="type1" route="es" depart="412.67468155244126" />
<vehicle id="type1_226" type="type1" route="wn" depart="416.1446077902695" />
<vehicle id="type1_227" type="type1" route="ns" depart="416.67220896925573" />
<vehicle id="type1_228" type="type1" route="ns" depart="419.28708356588163" />
<vehicle id="type1_229" type="type1" route="sn" depart="421.1348906669933" />
<vehicle id="type1_230" type="type1" route="we" depart="426.68035356265256" />
<vehicle id="type1_231" type="type1" route="en" depart="428.8074394855951" />
<vehicle id="type1_232" type="type1" route="sn" depart="428.89381512818187" />
<vehicle id="type1_233" type="type1" route="sw" depart="429.8754960717338" />
<vehicle id="type1_234" type="type1" route="wn" depart="431.4617021205422" />
<vehicle id="type1_235" type="type1" route="ne" depart="432.2447672184352" />
<vehicle id="type1_236" type="type1" route="es" depart="434.15838319897233" />
<vehicle id="type1_237" type="type1" route="sw" depart="434.92484051806576" />
<vehicle id="type1_238" type="type1" route="en" depart="436.7936637921789" />
<vehicle id="type1_239" type="type1" route="we" depart="437.3232011814661" />
<vehicle id="type1_240" type="type1" route="sw" depart="442.40502287628044" />
<vehicle id="type1_241" type="type1" route="ew" depart="442.6921435463129" />
<vehicle id="type1_242" type="type1" route="ns" depart="444.17200393090064" />
<vehicle id="type1_243" type="type1" route="se" depart="446.5867584713606" />
<vehicle id="type1_244" type="type1" route="sw" depart="449.3211384119349" />
<vehicle id="type1_245" type="type1" route="we" depart="450.1089583781693" />
<vehicle id="type1_246" type="type1" route="ns" depart="450.83670863687587" />
<vehicle id="type1_247" type="type1" route="ns" depart="451.39782817666753" />
<vehicle id="type1_248" type="type1" route="ns" depart="452.4073776404351" />
<vehicle id="type1_249" type="type1" route="ns" depart="453.15263845485566" />
<vehicle id="type1_250" type="type1" route="es" depart="454.08718685467994" />
<vehicle id="type1_251" type="type1" route="wn" depart="456.31579986589986" />
<vehicle id="type1_252" type="type1" route="sw" depart="457.5437571789272" />
<vehicle id="type1_253" type="type1" route="we" depart="457.7579237013996" />
<vehicle id="type1_254" type="type1" route="es" depart="465.42389276658156" />
<vehicle id="type1_255" type="type1" route="ew" depart="470.23365018453023" />
<vehicle id="type1_256" type="type1" route="es" depart="472.01686675781775" />
<vehicle id="type1_257" type="type1" route="ws" depart="473.20629644714677" />
<vehicle id="type1_258" type="type1" route="se" depart="473.641495259621" />
<vehicle id="type1_259" type="type1" route="es" depart="474.4842596279846" />
<vehicle id="type1_260" type="type1" route="ne" depart="476.7125064645426" />
<vehicle id="type1_261" type="type1" route="ws" depart="477.99613244086925" />
<vehicle id="type1_262" type="type1" route="sw" depart="479.4950805354137" />
<vehicle id="type1_263" type="type1" route="sn" depart="484.9512849478991" />
<vehicle id="type1_264" type="type1" route="en" depart="485.777570550685" />
<vehicle id="type1_265" type="type1" route="wn" depart="486.8468914853957" />
<vehicle id="type1_266" type="type1" route="we" depart="487.1698431066193" />
<vehicle id="type1_267" type="type1" route="sw" depart="490.69083544199583" />
<vehicle id="type1_268" type="type1" route="ew" depart="491.1236933919155" />
<vehicle id="type1_269" type="type1" route="sn" depart="492.0724844164981" />
<vehicle id="type1_270" type="type1" route="nw" depart="494.6481071029134" />
<vehicle id="type1_271" type="type1" route="ns" depart="496.26003484899854" />
<vehicle id="type1_272" type="type1" route="ns" depart="502.40823954693354" />
<vehicle id="type1_273" type="type1" route="we" depart="503.91263042468336" />
<vehicle id="type1_274" type="type1" route="se" depart="505.1705506654995" />
<vehicle id="type1_275" type="type1" route="es" depart="505.83851374810035" />
<vehicle id="type1_276" type="type1" route="se" depart="510.08767611369626" />
<vehicle id="emv_3" type="rescue" route="sw" depart="521.290272642508" />
<vehicle id="type1_277" type="type1" route="nw" depart="522.258749022329" />
<vehicle id="type1_278" type="type1" route="we" depart="527.5214201609709" />
<vehicle id="type1_279" type="type1" route="en" depart="528.830852075808" />
<vehicle id="type1_280" type="type1" route="ws" depart="530.583914364139" />
<vehicle id="type1_281" type="type1" route="nw" depart="531.777779369189" />
<vehicle id="type1_282" type="type1" route="we" depart="532.8077351610095" />
<vehicle id="type1_283" type="type1" route="sn" depart="533.0296014783519" />
<vehicle id="type1_284" type="type1" route="wn" depart="533.6332981505167" />
<vehicle id="type1_285" type="type1" route="es" depart="535.04596202934" />
<vehicle id="type1_286" type="type1" route="ws" depart="537.4303282713746" />
<vehicle id="type1_287" type="type1" route="sn" depart="543.2648340710892" />
<vehicle id="type1_288" type="type1" route="ws" depart="543.7012684043299" />
<vehicle id="type1_289" type="type1" route="nw" depart="544.356892097613" />
<vehicle id="type1_290" type="type1" route="sn" depart="548.9616847570878" />
<vehicle id="type1_291" type="type1" route="ws" depart="552.0345319545783" />
<vehicle id="emv_4" type="rescue" route="sn" depart="552.52363072231" />
<vehicle id="type1_292" type="type1" route="nw" depart="555.0751991213298" />
<vehicle id="type1_293" type="type1" route="we" depart="556.9064165128816" />
<vehicle id="type1_294" type="type1" route="sn" depart="564.9956910992911" />
<vehicle id="type1_295" type="type1" route="sn" depart="566.9855366205672" />
<vehicle id="type1_296" type="type1" route="nw" depart="567.951434934447" />
<vehicle id="type1_297" type="type1" route="sn" depart="567.9640721435535" />
<vehicle id="type1_298" type="type1" route="wn" depart="572.6536845868774" />
<vehicle id="type1_299" type="type1" route="we" depart="574.3602514849747" />
<vehicle id="type1_300" type="type1" route="ne" depart="576.914749814865" />
<vehicle id="type1_301" type="type1" route="sw" depart="580.135436972895" />
<vehicle id="type1_302" type="type1" route="ne" depart="583.3487673302056" />
<vehicle id="type1_303" type="type1" route="wn" depart="583.4002169368854" />
<vehicle id="type1_304" type="type1" route="sn" depart="584.4863923948367" />
<vehicle id="type1_305" type="type1" route="sw" depart="586.460343971186" />
<vehicle id="type1_306" type="type1" route="es" depart="587.5223140145191" />
<vehicle id="type1_307" type="type1" route="ne" depart="587.6027516893066" />
<vehicle id="type1_308" type="type1" route="nw" depart="587.9011520211628" />
<vehicle id="type1_309" type="type1" route="es" depart="590.581324350571" />
<vehicle id="type1_310" type="type1" route="nw" depart="592.3320106915293" />
<vehicle id="type1_311" type="type1" route="en" depart="593.6995546786718" />
<vehicle id="type1_312" type="type1" route="ws" depart="594.2437965468107" />
<vehicle id="type1_313" type="type1" route="sn" depart="594.4039533371808" />
<vehicle id="type1_314" type="type1" route="es" depart="594.9786204710571" />
<vehicle id="type1_315" type="type1" route="se" depart="597.0883538264696" />
<vehicle id="type1_316" type="type1" route="se" depart="597.2965012974298" />
<vehicle id="type1_317" type="type1" route="wn" depart="600.2429457784348" />
<vehicle id="type1_318" type="type1" route="ew" depart="600.5015950162285" />
<vehicle id="type1_319" type="type1" route="sw" depart="601.0420268357028" />
<vehicle id="type1_320" type="type1" route="ws" depart="601.6605047799327" />
<vehicle id="type1_321" type="type1" route="ne" depart="604.6596883932799" />
<vehicle id="type1_322" type="type1" route="sn" depart="606.1341997849421" />
<vehicle id="type1_323" type="type1" route="sw" depart="609.3687266660917" />
<vehicle id="type1_324" type="type1" route="sn" depart="609.961516952474" />
<vehicle id="type1_325" type="type1" route="ne" depart="611.1354740185157" />
<vehicle id="type1_326" type="type1" route="ne" depart="614.6688979746334" />
<vehicle id="type1_327" type="type1" route="ns" depart="619.1847890777522" />
<vehicle id="type1_328" type="type1" route="nw" depart="621.3662562977368" />
<vehicle id="type1_329" type="type1" route="sw" depart="623.0031752914684" />
<vehicle id="type1_330" type="type1" route="se" depart="624.8687964630486" />
<vehicle id="type1_331" type="type1" route="se" depart="625.8416355185952" />
<vehicle id="type1_332" type="type1" route="en" depart="626.1581187897627" />
<vehicle id="type1_333" type="type1" route="ne" depart="628.944721861644" />
<vehicle id="type1_334" type="type1" route="en" depart="629.0907445953295" />
<vehicle id="type1_335" type="type1" route="ws" depart="630.2181863785988" />
<vehicle id="type1_336" type="type1" route="ew" depart="630.5315345404807" />
<vehicle id="type1_337" type="type1" route="es" depart="631.5343498929944" />
<vehicle id="type1_338" type="type1" route="ns" depart="636.9742653937242" />
<vehicle id="type1_339" type="type1" route="wn" depart="638.4491290996383" />
<vehicle id="type1_340" type="type1" route="sn" depart="640.9356588069453" />
<vehicle id="type1_341" type="type1" route="ws" depart="641.460003113622" />
<vehicle id="type1_342" type="type1" route="es" depart="641.6087718751766" />
<vehicle id="type1_343" type="type1" route="ne" depart="643.2700991052907" />
<vehicle id="type1_344" type="type1" route="ne" depart="644.2712212074048" />
<vehicle id="type1_345" type="type1" route="en" depart="648.8955080175548" />
<vehicle id="type1_346" type="type1" route="ns" depart="648.9401139032053" />
<vehicle id="type1_347" type="type1" route="sn" depart="653.1804678130832" />
<vehicle id="type1_348" type="type1" route="sn" depart="655.6126214736503" />
<vehicle id="type1_349" type="type1" route="sw" depart="656.4299434480598" />
<vehicle id="type1_350" type="type1" route="ws" depart="657.4063037142679" />
<vehicle id="type1_351" type="type1" route="wn" depart="657.4527115016612" />
<vehicle id="type1_352" type="type1" route="wn" depart="661.028120735035" />
<vehicle id="type1_353" type="type1" route="ws" depart="662.968169619578" />
<vehicle id="type1_354" type="type1" route="wn" depart="664.133361080629" />
<vehicle id="type1_355" type="type1" route="we" depart="666.7924107035627" />
<vehicle id="type1_356" type="type1" route="sw" depart="674.5726244512626" />
<vehicle id="type1_357" type="type1" route="ns" depart="674.9355820112579" />
<vehicle id="type1_358" type="type1" route="en" depart="679.1532597997484" />
<vehicle id="type1_359" type="type1" route="ew" depart="681.6164461550021" />
<vehicle id="type1_360" type="type1" route="nw" depart="681.8803993788842" />
<vehicle id="type1_361" type="type1" route="ne" depart="684.0605686259188" />
<vehicle id="type1_362" type="type1" route="ne" depart="684.6925692338741" />