<routes>
            <vType id="type1" accel="0.8" decel="4.5" sigma="0.5" length="5" maxSpeed="70"/>
            <vType id="rescue" vClass="emergency" speedFactor="1.5" guiShape="emergency">
                <param key="has.bluelight.device" value="true"/>
            </vType>
            <route id="ne" edges="ni eo"/>
            <route id="ns" edges="ni so"/>
            <route id="nw" edges="ni wo"/>
            <route id="en" edges="ei no"/>
            <route id="es" edges="ei so"/>
            <route id="ew" edges="ei wo"/>
            <route id="sn" edges="si no"/>
            <route id="se" edges="si eo"/>
            <route id="sw" edges="si wo"/>
            <route id="wn" edges="wi no"/>
            <route id="we" edges="wi eo"/>
            <route id="ws" edges="wi so"/>
        
            <personFlow id="p_ew" begin="0" end="300" period="50">
                <walk route="ew"/>
            </personFlow>
                         
            <personFlow id="p_we" begin="0" end="300" period="50">
                <walk route="we"/>
            </personFlow>
                         
            <personFlow id="p_sn" begin="0" end="300" period="50">
                <walk route="sn"/>
            </personFlow>
                         
            <personFlow id="p_ns" begin="0" end="300" period="50">
                <walk route="ns"/>
            </personFlow>
                         <vehicle id="type1_1" type="type1" route="we" depart="10.186419136270839" />
<vehicle id="type1_2" type="type1" route="sw" depart="10.257298372125007" />
<vehicle id="type1_3" type="type1" route="nw" depart="10.293616549639635" />
<vehicle id="type1_4" type="type1" route="ew" depart="11.959379540570088" />
<vehicle id="type1_5" type="type1" route="ne" depart="14.332453657547156" />
<vehicle id="type1_6" type="type1" route="sw" depart="20.00284990659123" />
<vehicle id="type1_7" type="type1" route="wn" depart="23.969394512785556" />
<vehicle id="type1_8" type="type1" route="wn" depart="24.82762623525632" />
<vehicle id="type1_9" type="type1" route="we" depart="26.94870041473424" />
<vehicle id="type1_10" type="type1" route="se" depart="27.29353338931237" />
<vehicle id="type1_11" type="type1" route="ne" depart="30.146803974780184" />
<vehicle id="type1_12" type="type1" route="ne" depart="31.32652061948482" />
<vehicle id="type1_13" type="type1" route="ws" depart="32.1162768548905" />
<vehicle id="type1_14" type="type1" route="wn" depart="33.525072688324116" />
<vehicle id="type1_15" type="type1" route="nw" depart="36.968773506070455" />
<vehicle id="type1_16" type="type1" route="ns" depart="41.24319443474383" />
<vehicle id="type1_17" type="type1" route="we" depart="42.4527247141437" />
<vehicle id="type1_18" type="type1" route="en" depart="43.58048976474404" />
<vehicle id="type1_19" type="type1" route="en" depart="56.525297269779195" />
<vehicle id="type1_20" type="type1" route="wn" depart="56.60079011459996" />
<vehicle id="type1_21" type="type1" route="we" depart="58.85123801263735" />
<vehicle id="type1_22" type="type1" route="ws" depart="61.408465158923704" />
<vehicle id="type1_23" type="type1" route="sn" depart="64.88616114672949" />
<vehicle id="type1_24" type="type1" route="se" depart="68.25837882136176" />
<vehicle id="type1_25" type="type1" route="ne" depart="71.90638437973615" />
<vehicle id="type1_26" type="type1" route="sn" depart="72.49838055761299" />
<vehicle id="type1_27" type="type1" route="se" depart="75.40983292144047" />
<vehicle id="type1_28" type="type1" route="wn" depart="80.18039203682184" />
<vehicle id="type1_29" type="type1" route="ws" depart="83.5302438058383" />
<vehicle id="type1_30" type="type1" route="en" depart="100.16843672647767" />
<vehicle id="type1_31" type="type1" route="we" depart="103.14553053339047" />
<vehicle id="type1_32" type="type1" route="en" depart="108.12230490258536" />
<vehicle id="type1_33" type="type1" route="se" depart="113.474086630745" />
<vehicle id="type1_34" type="type1" route="ns" depart="120.39796397483906" />
<vehicle id="type1_35" type="type1" route="we" depart="122.93533055335034" />
<vehicle id="type1_36" type="type1" route="ew" depart="135.57970082050704" />
<vehicle id="type1_37" type="type1" route="es" depart="135.7604138932465" />
<vehicle id="type1_38" type="type1" route="se" depart="141.31061328833678" />
<vehicle id="type1_39" type="type1" route="nw" depart="142.21057839479795" />
<vehicle id="type1_40" type="type1" route="we" depart="144.1849216454193" />
<vehicle id="type1_41" type="type1" route="ew" depart="157.18047919792497" />
<vehicle id="type1_42" type="type1" route="sn" depart="158.56458738222238" />
<vehicle id="type1_43" type="type1" route="sw" depart="159.12436101514936" />
<vehicle id="type1_44" type="type1" route="ws" depart="160.2174274021591" />
<vehicle id="type1_45" type="type1" route="ns" depart="162.60082608823018" />
<vehicle id="type1_46" type="type1" route="es" depart="163.28448287987567" />
<vehicle id="type1_47" type="type1" route="ew" depart="164.79939648070183" />
<vehicle id="type1_48" type="type1" route="wn" depart="166.94860455746203" />
<vehicle id="type1_49" type="type1" route="ne" depart="167.7145227924876" />
<vehicle id="type1_50" type="type1" route="se" depart="168.2230720331181" />
<vehicle id="type1_51" type="type1" route="se" depart="169.45332350302832" />
<vehicle id="type1_52" type="type1" route="wn" depart="171.60513482130412" />
<vehicle id="type1_53" type="type1" route="se" depart="178.6436260735809" />
<vehicle id="type1_54" type="type1" route="ns" depart="180.91366328988107" />
<vehicle id="type1_55" type="type1" route="ws" depart="181.92645460721315" />
<vehicle id="type1_56" type="type1" route="es" depart="184.54696062681757" />
<vehicle id="type1_57" type="type1" route="sn" depart="184.67916739907514" />
<vehicle id="type1_58" type="type1" route="ew" depart="188.32252489637634" />
<vehicle id="type1_59" type="type1" route="ns" depart="188.87987271843943" />
<vehicle id="type1_60" type="type1" route="nw" depart="190.40902107116497" />
<vehicle id="type1_61" type="type1" route="nw" depart="191.54046890143593" />
<vehicle id="type1_62" type="type1" route="ne" depart="194.25994504826636" />
<vehicle id="type1_63" type="type1" route="es" depart="195.63422718937815" />
<vehicle id="type1_64" type="type1" route="we" depart="198.06936218130267" />
<vehicle id="type1_65" type="type1" route="sw" depart="199.5819026234689" />
<vehicle id="type1_66" type="type1" route="we" depart="199.64272720359267" />
<vehicle id="type1_67" type="type1" route="sw" depart="199.88257767543703" />
<vehicle id="type1_68" type="type1" route="ne" depart="203.77579813872174" />
<vehicle id="type1_69" type="type1" route="ne" depart="212.52645581001397" />
<vehicle id="type1_70" type="type1" route="sn" depart="212.96632985819727" />
<vehicle id="type1_71" type="type1" route="wn" depart="217.83540821436787" />
<vehicle id="type1_72" type="type1" route="wn" depart="218.4570185966473" />
<vehicle id="type1_73" type="type1" route="se" depart="220.39146445468344" />
<vehicle id="type1_74" type="type1" route="ns" depart="220.96143739227892" />
<vehicle id="emv_1" type="rescue" route="sw" depart="224.3692905218011" />
<vehicle id="type1_75" type="type1" route="nw" depart="232.0219132509215" />
<vehicle id="type1_76" type="type1" route="wn" depart="233.72275721852745" />
<vehicle id="type1_77" type="type1" route="nw" depart="235.76986754865652" />
<vehicle id="type1_78" type="type1" route="nw" depart="239.9208446217768" />
<vehicle id="type1_79" type="type1" route="ne" depart="245.27865442651049" />
<vehicle id="type1_80" type="type1" route="es" depart="247.11812368073916" />
<vehicle id="type1_81" type="type1" route="es" depart="247.4180074306333" />
<vehicle id="type1_82" type="type1" route="ws" depart="248.66211820730007" />
<vehicle id="type1_83" type="type1" route="ns" depart="253.25786158635398" />
<vehicle id="type1_84" type="type1" route="sw" depart="254.02053010278544" />
<vehicle id="type1_85" type="type1" route="ew" depart="255.87700445177512" />
<vehicle id="type1_86" type="type1" route="sn" depart="256.3758883415944" />
<vehicle id="type1_87" type="type1" route="wn" depart="256.40053922635815" />
<vehicle id="type1_88" type="type1" route="es" depart="258.91078583148607" />
<vehicle id="type1_89" type="type1" route="ne" depart="259.9881530273331" />
<vehicle id="type1_90" type="type1" route="se" depart="262.5316659254304" />
<vehicle id="type1_91" type="type1" route="wn" depart="263.0493594082082" />
<vehicle id="type1_92" type="type1" route="we" depart="278.4762581504787" />
<vehicle id="emv_2" type="rescue" route="ne" depart="284.4611326654898" />
<vehicle id="type1_93" type="type1" route="we" depart="285.1290765159162" />
<vehicle id="type1_94" type="type1" route="se" depart="291.5155349421674" />
<vehicle id="type1_95" type="type1" route="ew" depart="293.3938664021337" />
<vehicle id="type1_96" type="type1" route="nw" depart="294.89483841891933" />
<vehicle id="type1_97" type="type1" route="sn" depart="295.72183378216897" />
<vehicle id="type1_98" type="type1" route="ns" depart="297.44708924739746" />
<vehicle id="type1_99" type="type1" route="ew" depart="297.88876728553385" />
<vehicle id="type1_100" type="type1" route="ws" depart="304.6417724952252" />
<vehicle id="type1_101" type="type1" route="nw" depart="307.774506833965" />
<vehicle id="type1_102" type="type1" route="wn" depart="310.6238443466472" />
<vehicle id="type1_103" type="type1" route="ne" depart="312.7185716781669" />
<vehicle id="type1_104" type="type1" route="ne" depart="314.2676406147598" />
<vehicle id="type1_105" type="type1" route="se" depart="318.7375796981485" />
<vehicle id="type1_106" type="type1" route="wn" depart="319.6896883619235" />
<vehicle id="type1_107" type="type1" route="se" depart="321.4368576151677" />
<vehicle id="type1_108" type="type1" route="sn" depart="326.0925240055832" />
<vehicle id="type1_109" type="type1" route="wn" depart="326.50812753596927" />
<vehicle id="type1_110" type="type1" route="ne" depart="329.44630359908007" />
<vehicle id="type1_111" type="type1" route="es" depart="337.2637318059898" />
<vehicle id="type1_112" type="type1" route="ws" depart="340.470411584253" />
<vehicle id="type1_113" type="type1" route="we" depart="340.8845615739156" />
<vehicle id="type1_114" type="type1" route="we" depart="341.05731739872766" />
<vehicle id="type1_115" type="type1" route="nw" depart="342.76255252096576" />
<vehicle id="type1_116" type="type1" route="se" depart="346.1419165251005" />
<vehicle id="type1_117" type="type1" route="wn" depart="348.11654213365546" />
<vehicle id="type1_118" type="type1" route="es" depart="356.69072132231497" />
<vehicle id="type1_119" type="type1" route="sw" depart="357.64539086020153" />
<vehicle id="type1_120" type="type1" route="ne" depart="357.9629689478512" />
<vehicle id="type1_121" type="type1" route="we" depart="358.32980464553657" />
<vehicle id="type1_122" type="type1" route="ne" depart="360.02205097514957" />
<vehicle id="type1_123" type="type1" route="wn" depart="361.4718860561175" />
<vehicle id="type1_124" type="type1" route="ws" depart="361.7201293694376" />
<vehicle id="type1_125" type="type1" route="sw" depart="368.0032273986395" />
<vehicle id="type1_126" type="type1" route="ne" depart="371.5242872424526" />
<vehicle id="type1_127" type="type1" route="en" depart="378.024491176113" />
<vehicle id="type1_128" type="type1" route="ne" depart="381.54965456909474" />
<vehicle id="type1_129" type="type1" route="sn" depart="383.0051515058041" />
<vehicle id="type1_130" type="type1" route="we" depart="390.4039038159522" />
<vehicle id="type1_131" type="type1" route="en" depart="393.64663803025445" />
<vehicle id="type1_132" type="type1" route="ew" depart="395.9588268703764" />
<vehicle id="type1_133" type="type1" route="ns" depart="397.50041040214364" />
<vehicle id="type1_134" type="type1" route="ws" depart="397.6364977192522" />
<vehicle id="type1_135" type="type1" route="wn" depart="399.2058719217057" />
<vehicle id="type1_136" type="type1" route="ws" depart="400.43560188670307" />
<vehicle id="type1_137" type="type1" route="se" depart="400.5228719430298" />
<vehicle id="type1_138" type="type1" route="es" depart="401.12374231468687" />
<vehicle id="type1_139" type="type1" route="ns" depart="401.7700532005453" />
<vehicle id="type1_140" type="type1" route="nw" depart="403.1936413531709" />
<vehicle id="type1_141" type="type1" route="ne" depart="404.00048627571005" />
<vehicle id="type1_142" type="type1" route="nw" depart="404.539587041016" />
<vehicle id="type1_143" type="type1" route="we" depart="407.0951449216683" />
<vehicle id="type1_144" type="type1" route="we" depart="412.0193661762668" />
<vehicle id="type1_145" type="type1" route="ew" depart="414.7793291354767" />
<vehicle id="type1_146" type="type1" route="ns" depart="416.4482495853586" />
<vehicle id="type1_147" type="type1" route="we" depart="418.0134241263539" />
<vehicle id="type1_148" type="type1" route="ne" depart="419.306091044197" />
<vehicle id="type1_149" type="type1" route="es" depart="419.5195581580256" />
<vehicle id="type1_150" type="type1" route="sw" depart="423.7776310400184" />
<vehicle id="type1_151" type="type1" route="nw" depart="425.8145496805236" />
<vehicle id="type1_152" type="type1" route="wn" depart="431.3869414967905" />
<vehicle id="type1_153" type="type1" route="se" depart="438.1546475301237" />
<vehicle id="type1_154" type="type1" route="we" depart="440.63434451534164" />
<vehicle id="type1_155" type="type1" route="se" depart="440.7750057608789" />
<vehicle id="type1_156" type="type1" route="se" depart="445.13802235444103" />
<vehicle id="type1_157" type="type1" route="se" depart="452.5151013668771" />
<vehicle id="type1_158" type="type1" route="we" depart="453.0489481558557" />
<vehicle id="type1_159" type="type1" route="ne" depart="454.02348264231216" />
<vehicle id="type1_160" type="type1" route="ne" depart="456.3883973341254" />
<vehicle id="type1_161" type="type1" route="sw" depart="459.03360661645945" />
<vehicle id="type1_162" type="type1" route="sw" depart="460.8137565670653" />
<vehicle id="type1_163" type="type1" route="we" depart="461.5840691126225" />
<vehicle id="type1_164" type="type1" route="wn" depart="465.7797551639447" />
<vehicle id="type1_165" type="type1" route="se" depart="466.29112982496963" />
<vehicle id="type1_166" type="type1" route="ne" depart="473.50839409027463" />
<vehicle id="type1_167" type="type1" route="we" depart="474.88557974438237" />
<vehicle id="type1_168" type="type1" route="ns" depart="477.87949760828525" />
<vehicle id="type1_169" type="type1" route="se" depart="478.96657583863094" />
<vehicle id="type1_170" type="type1" route="wn" depart="480.7137338504643" />
<vehicle id="type1_171" type="type1" route="nw" depart="482.76181263309564" />
<vehicle id="type1_172" type="type1" route="se" depart="483.68279118308703" />
<vehicle id="type1_173" type="type1" route="sw" depart="486.89579100110825" />
<vehicle id="type1_174" type="type1" route="es" depart="495.1312368972373" />
<vehicle id="type1_175" type="type1" route="ns" depart="497.1482010540035" />
<vehicle id="type1_176" type="type1" route="ne" depart="497.7984713020238" />
<vehicle id="type1_177" type="type1" route="nw" depart="498.8378198817213" />
<vehicle id="type1_178" type="type1" route="ne" depart="501.75893305508254" />
<vehicle id="type1_179" type="type1" route="se" depart="501.8181029868585" />
<vehicle id="type1_180" type="type1" route="ws" depart="502.3048488087562" />
<vehicle id="type1_181" type="type1" route="we" depart="503.5456480237839" />
<vehicle id="type1_182" type="type1" route="ns" depart="503.7819782798852" />
<vehicle id="type1_183" type="type1" route="sw" depart="504.6120985409129" />
<vehicle id="type1_184" type="type1" route="ns" depart="505.8165029952292" />
<vehicle id="type1_185" type="type1" route="es" depart="509.10170073434574" />
<vehicle id="type1_186" type="type1" route="ew" depart="510.1730823815911" />
<vehicle id="type1_187" type="type1" route="nw" depart="511.2291967946829" />
<vehicle id="type1_188" type="type1" route="wn" depart="513.0777798501828" />
<vehicle id="type1_189" type="type1" route="es" depart="513.4145838445586" />
<vehicle id="type1_190" type="type1" route="sw" depart="513.5916477760253" />
<vehicle id="type1_191" type="type1" route="wn" depart="514.660226186399" />
<vehicle id="type1_192" type="type1" route="we" depart="517.6236627581012" />
<vehicle id="type1_193" type="type1" route="ws" depart="519.3265978803662" />
<vehicle id="type1_194" type="type1" route="sn" depart="521.8526447457175" />
<vehicle id="type1_195" type="type1" route="es" depart="523.1530158444724" />
<vehicle id="type1_196" type="type1" route="ew" depart="526.9802175514142" />
<vehicle id="type1_197" type="type1" route="en" depart="534.1391315811013" />
<vehicle id="type1_198" type="type1" route="ne" depart="535.7782348914006" />
<vehicle id="type1_199" type="type1" route="ns" depart="535.8536625624888" />
<vehicle id="type1_200" type="type1" route="we" depart="536.9503870380821" />
<vehicle id="type1_201" type="type1" route="es" depart="538.0799226423364" />
<vehicle id="type1_202" type="type1" route="se" depart="540.908936701102" />
<vehicle id="type1_203" type="type1" route="sn" depart="542.1680904151875" />
<vehicle id="type1_204" type="type1" route="wn" depart="543.0463039683028" />
<vehicle id="type1_205" type="type1" route="sw" depart="543.201472965364" />
<vehicle id="type1_206" type="type1" route="sw" depart="543.3311419338396" />
<vehicle id="emv_3" type="rescue" route="ew" depart="547.6741784177173" />
<vehicle id="type1_207" type="type1" route="en" depart="552.8737941248374" />
<vehicle id="type1_208" type="type1" route="wn" depart="555.6009075215081" />
<vehicle id="type1_209" type="type1" route="we" depart="555.769044358025" />
<vehicle id="type1_210" type="type1" route="se" depart="557.0154576308563" />
<vehicle id="type1_211" type="type1" route="wn" depart="558.9218920881723" />
<vehicle id="type1_212" type="type1" route="ew" depart="563.9121876326586" />
<vehicle id="type1_213" type="type1" route="ne" depart="565.9791311581171" />
<vehicle id="type1_214" type="type1" route="se" depart="566.5480750074717" />
<vehicle id="type1_215" type="type1" route="ws" depart="567.3310350922108" />
<vehicle id="type1_216" type="type1" route="ne" depart="568.2682757579901" />
<vehicle id="type1_217" type="type1" route="ne" depart="569.6227875659102" />
<vehicle id="type1_218" type="type1" route="en" depart="573.0084373569808" />
<vehicle id="type1_219" type="type1" route="wn" depart="579.0353365729136" />
<vehicle id="type1_220" type="type1" route="es" depart="580.2614109360443" />
<vehicle id="type1_221" type="type1" route="ne" depart="581.5543325497549" />
<vehicle id="type1_222" type="type1" route="sw" depart="582.4512114279061" />
<vehicle id="type1_223" type="type1" route="nw" depart="583.0333046172901" />
<vehicle id="type1_224" type="type1" route="ew" depart="590.382900703058" />
<vehicle id="type1_225" type="type1" route="ns" depart="591.3958469979274" />
<vehicle id="type1_226" type="type1" route="wn" depart="591.4325207310853" />
<vehicle id="type1_227" type="type1" route="ws" depart="591.4692742764424" />
<vehicle id="type1_228" type="type1" route="ew" depart="594.720064532519" />
<vehicle id="type1_229" type="type1" route="ns" depart="595.9024084365756" />
<vehicle id="type1_230" type="type1" route="ns" depart="602.1114279313563" />
<vehicle id="type1_231" type="type1" route="nw" depart="604.313067749701" />
<vehicle id="type1_232" type="type1" route="se" depart="604.7812744385212" />
<vehicle id="type1_233" type="type1" route="ns" depart="611.6492356118365" />
<vehicle id="type1_234" type="type1" route="en" depart="613.9343922612053" />
<vehicle id="type1_235" type="type1" route="nw" depart="614.7212406677496" />
<vehicle id="type1_236" type="type1" route="es" depart="616.9480477827317" />
<vehicle id="type1_237" type="type1" route="en" depart="620.3734141787272" />
<vehicle id="type1_238" type="type1" route="ne" depart="621.4460879470977" />
<vehicle id="type1_239" type="type1" route="ws" depart="622.9868073513564" />
<vehicle id="type1_240" type="type1" route="ns" depart="640.5097285859448" />
<vehicle id="type1_241" type="type1" route="wn" depart="640.5503422915385" />
<vehicle id="type1_242" type="type1" route="es" depart="641.1552988035552" />
<vehicle id="type1_243" type="type1" route="ew" depart="641.7765454153218" />
<vehicle id="type1_244" type="type1" route="se" depart="642.739416783491" />
<vehicle id="type1_245" type="type1" route="sn" depart="643.5324729782785" />
<vehicle id="type1_246" type="type1" route="ns" depart="647.8028803176965" />
<vehicle id="type1_247" type="type1" route="wn" depart="649.9741327263414" />
<vehicle id="type1_248" type="type1" route="se" depart="652.578375866364" />
<vehicle id="type1_249" type="type1" route="ne" depart="659.4493307113795" />
<vehicle id="type1_250" type="type1" route="es" depart="661.4451768325939" />
<vehicle id="type1_251" type="type1" route="sw" depart="661.587474973452" />
<vehicle id="type1_252" type="type1" route="ws" depart="661.6471957502429" />
<vehicle id="type1_253" type="type1" route="ns" depart="663.0240263449093" />
<vehicle id="type1_254" type="type1" route="en" depart="663.7921004019368" />
<vehicle id="type1_255" type="type1" route="se" depart="664.6443999049355" />
<vehicle id="type1_256" type="type1" route="ns" depart="668.7588373298728" />
<vehicle id="type1_257" type="type1" route="sw" depart="669.7130253481679" />
<vehicle id="type1_258" type="type1" route="wn" depart="670.7293573496269" />
<vehicle id="type1_259" type="type1" route="es" depart="671.5163626390465" />
<vehicle id="type1_260" type="type1" route="se" depart="672.6829538465894" />
<vehicle id="type1_261" type="type1" route="sw" depart="672.7333681432015" />
<vehicle id="type1_262" type="type1" route="we" depart="672.7891239651814" />
<vehicle id="type1_263" type="type1" route="nw" depart="674.1587718633207" />
<vehicle id="type1_264" type="type1" route="wn" depart="677.201569439229" />
<vehicle id="type1_265" type="type1" route="wn" depart="679.7591142007925" />
<vehicle id="type1_266" type="type1" route="en" depart="681.9671108941797" />
<vehicle id="type1_267" type="type1" route="en" depart="683.2104142662917" />
<vehicle id="type1_268" type="type1" route="ew" depart="686.4812200410624" />
<vehicle id="type1_269" type="type1" route="en" depart="691.8062480192796" />
<vehicle id="type1_270" type="type1" route="ws" depart="692.0283502923658" />
<vehicle id="type1_271" type="type1" route="nw" depart="693.8335232551061" />
<vehicle id="type1_272" type="type1" route="sw" depart="694.3285237380543" />
<vehicle id="type1_273" type="type1" route="ns" depart="694.7234612197608" />
<vehicle id="type1_274" type="type1" route="wn" depart="701.9396280555691" />
<vehicle id="type1_275" type="type1" route="es" depart="702.1639592415593" />
<vehicle id="type1_276" type="type1" route="sw" depart="704.0319300040359" />
<vehicle id="type1_277" type="type1" route="we" depart="704.2910407007726" />
<vehicle id="type1_278" type="type1" route="en" depart="704.5987431898584" />
<vehicle id="type1_279" type="type1" route="se" depart="713.2293278214381" />
<vehicle id="type1_280" type="type1" route="es" depart="714.3110256772766" />
<vehicle id="type1_281" type="type1" route="se" depart="717.9296044086282" />
<vehicle id="type1_282" type="type1" route="es" depart="721.4181603089877" />
<vehicle id="type1_283" type="type1" route="en" depart="722.1441955514653" />
<vehicle id="type1_284" type="type1" route="we" depart="725.2034811672117" />
<vehicle id="type1_285" type="type1" route="we" depart="725.5562878259122" />
<vehicle id="type1_286" type="type1" route="nw" depart="726.79192969791" />
<vehicle id="type1_287" type="type1" route="ew" depart="727.2016825393414" />
<vehicle id="type1_288" type="type1" route="ws" depart="727.2765527003287" />
<vehicle id="type1_289" type="type1" route="es" depart="729.9944188742189" />
<vehicle id="type1_290" type="type1" route="sn" depart="732.9490163620096" />
<vehicle id="emv_4" type="rescue" route="wn" depart="734.5545459575346" />
<vehicle id="type1_291" type="type1" route="ws" depart="738.6147832464081" />
<vehicle id="type1_292" type="type1" route="ne" depart="743.3799128017973" />
<vehicle id="type1_293" type="type1" route="se" depart="744.3069422690301" />
<vehicle id="type1_294" type="type1" route="wn" depart="745.1534634348696" />
<vehicle id="type1_295" type="type1" route="es" depart="750.1833034313482" />
<vehicle id="type1_296" type="type1" route="ne" depart="750.3613958795822" />
</routes>