<routes>
            <vType id="type1" accel="0.8" decel="4.5" sigma="0.5" length="5" maxSpeed="70"/>
            <vType id="rescue" vClass="emergency" speedFactor="1.5" guiShape="emergency">
                <param key="has.bluelight.device" value="true"/>
            </vType>
            <route id="ne" edges="ni eo"/>
            <route id="ns" edges="ni so"/>
            <route id="nw" edges="ni wo"/>
            <route id="en" edges="ei no"/>
            <route id="es" edges="ei so"/>
            <route id="ew" edges="ei wo"/>
            <route id="sn" edges="si no"/>
            <route id="se" edges="si eo"/>
            <route id="sw" edges="si wo"/>
            <route id="wn" edges="wi no"/>
            <route id="we" edges="wi eo"/>
            <route id="ws" edges="wi so"/>
        
            <personFlow id="p_sn" begin="0" end="400" period="50">
                <walk route="sn"/>
            </personFlow>
                         
            <personFlow id="p_ew" begin="0" end="400" period="50">
                <walk route="ew"/>
            </personFlow>
                         
            <personFlow id="p_ns" begin="0" end="400" period="50">
                <walk route="ns"/>
            </personFlow>
                         
            <personFlow id="p_we" begin="0" end="400" period="50">
                <walk route="we"/>
            </personFlow>
                         <vehicle id="type1_1" type="type1" route="es" depart="5.30196885253856" />
<vehicle id="type1_2" type="type1" route="nw" depart="7.066212102900102" />
<vehicle id="type1_3" type="type1" route="ns" depart="7.287480704402006" />
<vehicle id="type1_4" type="type1" route="wn" depart="9.153633329842918" />
<vehicle id="type1_5" type="type1" route="ws" depart="10.378008193829904" />
<vehicle id="type1_6" type="type1" route="wn" depart="11.91140964611396" />
<vehicle id="type1_7" type="type1" route="ws" depart="12.796810387216533" />
<vehicle id="type1_8" type="type1" route="sn" depart="15.253527684621844" />
<vehicle id="type1_9" type="type1" route="ne" depart="17.549912758042282" />
<vehicle id="type1_10" type="type1" route="ns" depart="18.874205865377032" />
<vehicle id="type1_11" type="type1" route="nw" depart="26.18988786410309" />
<vehicle id="type1_12" type="type1" route="ws" depart="28.31473272144312" />
<vehicle id="type1_13" type="type1" route="es" depart="31.560861422732074" />
<vehicle id="emv_1" type="rescue" route="sw" depart="35.670038120603124" />
<vehicle id="type1_14" type="type1" route="we" depart="36.07635476249924" />
<vehicle id="type1_15" type="type1" route="ws" depart="37.65869494842395" />
<vehicle id="emv_2" type="rescue" route="en" depart="38.132344066394765" />
<vehicle id="type1_16" type="type1" route="es" depart="43.96073220211591" />
<vehicle id="type1_17" type="type1" route="wn" depart="47.2960327478385" />
<vehicle id="type1_18" type="type1" route="en" depart="48.74567168065551" />
<vehicle id="type1_19" type="type1" route="sw" depart="51.31454010105254" />
<vehicle id="type1_20" type="type1" route="es" depart="52.10185515283317" />
<vehicle id="type1_21" type="type1" route="es" depart="54.781272330646765" />
<vehicle id="type1_22" type="type1" route="se" depart="54.992955090104275" />
<vehicle id="type1_23" type="type1" route="we" depart="56.14059798731719" />
<vehicle id="type1_24" type="type1" route="ns" depart="60.2512709494098" />
<vehicle id="type1_25" type="type1" route="ws" depart="65.95072761954265" />
<vehicle id="type1_26" type="type1" route="ne" depart="69.81777006705119" />
<vehicle id="type1_27" type="type1" route="nw" depart="72.46095460780907" />
<vehicle id="type1_28" type="type1" route="se" depart="72.57686551132299" />
<vehicle id="type1_29" type="type1" route="ws" depart="74.5911732249871" />
<vehicle id="type1_30" type="type1" route="ew" depart="75.04258450593126" />
<vehicle id="type1_31" type="type1" route="sw" depart="76.18641302531982" />
<vehicle id="type1_32" type="type1" route="nw" depart="77.47453907885296" />
<vehicle id="type1_33" type="type1" route="se" depart="78.18529527750663" />
<vehicle id="type1_34" type="type1" route="es" depart="79.25086157953204" />
<vehicle id="type1_35" type="type1" route="sn" depart="80.23872530025693" />
<vehicle id="type1_36" type="type1" route="en" depart="83.71543694394607" />
<vehicle id="type1_37" type="type1" route="sn" depart="83.89341544067665" />
<vehicle id="type1_38" type="type1" route="en" depart="85.93621792877481" />
<vehicle id="type1_39" type="type1" route="sn" depart="89.4872766020902" />
<vehicle id="type1_40" type="type1" route="sw" depart="95.40406432933811" />
<vehicle id="type1_41" type="type1" route="ne" depart="96.7896526815275" />
<vehicle id="type1_42" type="type1" route="sw" depart="99.43306309766817" />
<vehicle id="type1_43" type="type1" route="sw" depart="100.53150614402948" />
<vehicle id="type1_44" type="type1" route="we" depart="100.73628983874993" />
<vehicle id="type1_45" type="type1" route="ns" depart="102.30296324537625" />
<vehicle id="type1_46" type="type1" route="en" depart="103.71421574460854" />
<vehicle id="type1_47" type="type1" route="we" depart="105.51388639169417" />
<vehicle id="type1_48" type="type1" route="ne" depart="106.97438358168091" />
<vehicle id="type1_49" type="type1" route="sn" depart="109.2133565059305" />
<vehicle id="type1_50" type="type1" route="ws" depart="109.41627402160499" />
<vehicle id="type1_51" type="type1" route="we" depart="109.64324094901926" />
<vehicle id="type1_52" type="type1" route="sw" depart="110.69466629473655" />
<vehicle id="type1_53" type="type1" route="ns" depart="110.8171106081662" />
<vehicle id="type1_54" type="type1" route="ne" depart="112.02340406577909" />
<vehicle id="type1_55" type="type1" route="ne" depart="112.07295538262956" />
<vehicle id="type1_56" type="type1" route="es" depart="112.85155038482628" />
<vehicle id="type1_57" type="type1" route="ns" depart="115.255887257788" />
<vehicle id="type1_58" type="type1" route="nw" depart="117.14662181551151" />
<vehicle id="type1_59" type="type1" route="se" depart="117.29091440776672" />
<vehicle id="type1_60" type="type1" route="sw" depart="118.8124114767159" />
<vehicle id="type1_61" type="type1" route="ns" depart="122.15695829856958" />
<vehicle id="type1_62" type="type1" route="ns" depart="122.61530452602216" />
<vehicle id="type1_63" type="type1" route="sw" depart="123.84768192272776" />
<vehicle id="type1_64" type="type1" route="en" depart="126.72627303858569" />
<vehicle id="type1_65" type="type1" route="we" depart="130.64594913775514" />
<vehicle id="type1_66" type="type1" route="nw" depart="135.35613467583414" />
<vehicle id="type1_67" type="type1" route="we" depart="137.61624666283308" />
<vehicle id="type1_68" type="type1" route="wn" depart="137.83805287538922" />
<vehicle id="type1_69" type="type1" route="ew" depart="138.5789987902816" />
<vehicle id="type1_70" type="type1" route="nw" depart="138.63813399498488" />
<vehicle id="type1_71" type="type1" route="ew" depart="139.04067328846088" />
<vehicle id="type1_72" type="type1" route="sw" depart="141.19508034086215" />
<vehicle id="type1_73" type="type1" route="sw" depart="141.5991276852118" />
<vehicle id="type1_74" type="type1" route="wn" depart="144.05736337238068" />
<vehicle id="type1_75" type="type1" route="en" depart="144.80683057338993" />
<vehicle id="emv_3" type="rescue" route="en" depart="145.19901255326027" />
<vehicle id="type1_76" type="type1" route="en" depart="146.14418659043483" />
<vehicle id="type1_77" type="type1" route="en" depart="146.47343244800155" />
<vehicle id="type1_78" type="type1" route="es" depart="147.12176888232162" />
<vehicle id="type1_79" type="type1" route="ns" depart="147.56832447146556" />
<vehicle id="type1_80" type="type1" route="we" depart="152.6354436705911" />
<vehicle id="type1_81" type="type1" route="es" depart="152.95687311808533" />
<vehicle id="type1_82" type="type1" route="we" depart="154.0304995555455" />
<vehicle id="type1_83" type="type1" route="ew" depart="160.91744192702768" />
<vehicle id="type1_84" type="type1" route="es" depart="161.13851241049898" />
<vehicle id="type1_85" type="type1" route="en" depart="163.78661093281377" />
<vehicle id="type1_86" type="type1" route="es" depart="166.24671335496663" />
<vehicle id="type1_87" type="type1" route="en" depart="168.96648407484386" />
<vehicle id="type1_88" type="type1" route="wn" depart="172.77403648645884" />
<vehicle id="type1_89" type="type1" route="ns" depart="173.46925641501676" />
<vehicle id="type1_90" type="type1" route="we" depart="173.62516535489897" />
<vehicle id="type1_91" type="type1" route="ne" depart="174.47362918220628" />
<vehicle id="type1_92" type="type1" route="ws" depart="174.70303772454096" />
<vehicle id="type1_93" type="type1" route="ne" depart="177.28236584968226" />
<vehicle id="type1_94" type="type1" route="ne" depart="177.91552008238972" />
<vehicle id="type1_95" type="type1" route="nw" depart="181.44685604675377" />
<vehicle id="type1_96" type="type1" route="ns" depart="183.20796933717818" />
<vehicle id="type1_97" type="type1" route="es" depart="184.3886673009209" />
<vehicle id="type1_98" type="type1" route="en" depart="193.9178858121611" />
<vehicle id="type1_99" type="type1" route="en" depart="195.49547077964772" />
<vehicle id="type1_100" type="type1" route="ew" depart="195.66568510550195" />
<vehicle id="type1_101" type="type1" route="ew" depart="202.20838205773637" />
<vehicle id="type1_102" type="type1" route="sn" depart="203.20777484485055" />
<vehicle id="type1_103" type="type1" route="ws" depart="208.8556130380485" />
<vehicle id="type1_104" type="type1" route="wn" depart="209.08707076050553" />
<vehicle id="emv_4" type="rescue" route="we" depart="210.4057728184589" />
<vehicle id="type1_105" type="type1" route="ns" depart="218.2681196181954" />
<vehicle id="type1_106" type="type1" route="ws" depart="219.45862376270244" />
<vehicle id="type1_107" type="type1" route="se" depart="222.16883038155422" />
<vehicle id="type1_108" type="type1" route="wn" depart="234.69696662553406" />
<vehicle id="type1_109" type="type1" route="sw" depart="235.7343423940858" />
<vehicle id="type1_110" type="type1" route="es" depart="236.13590591773456" />
<vehicle id="type1_111" type="type1" route="ne" depart="237.72844244223467" />
<vehicle id="type1_112" type="type1" route="ew" depart="245.75241762050268" />
<vehicle id="type1_113" type="type1" route="ne" depart="246.8609137062181" />
<vehicle id="type1_114" type="type1" route="sn" depart="247.08968537175528" />
<vehicle id="type1_115" type="type1" route="ns" depart="247.29665722714788" />
<vehicle id="type1_116" type="type1" route="sn" depart="247.85424816662015" />
<vehicle id="type1_117" type="type1" route="ns" depart="248.1890984349355" />
<vehicle id="type1_118" type="type1" route="ws" depart="248.1993118130271" />
<vehicle id="type1_119" type="type1" route="es" depart="248.78684562410282" />
<vehicle id="type1_120" type="type1" route="ew" depart="249.4892716136844" />
<vehicle id="type1_121" type="type1" route="ns" depart="251.10390846668722" />
<vehicle id="type1_122" type="type1" route="es" depart="251.2782282524486" />
<vehicle id="type1_123" type="type1" route="nw" depart="253.13436978650722" />
<vehicle id="type1_124" type="type1" route="ne" depart="255.88971004285338" />
<vehicle id="type1_125" type="type1" route="ew" depart="259.9625896490717" />
<vehicle id="type1_126" type="type1" route="wn" depart="267.8028578547498" />
<vehicle id="type1_127" type="type1" route="se" depart="268.2685861661349" />
<vehicle id="type1_128" type="type1" route="ws" depart="270.54709491266027" />
<vehicle id="type1_129" type="type1" route="wn" depart="272.0201672901284" />
<vehicle id="type1_130" type="type1" route="en" depart="273.343865263282" />
<vehicle id="type1_131" type="type1" route="es" depart="273.7265164376553" />
<vehicle id="type1_132" type="type1" route="ns" depart="277.57095740400956" />
<vehicle id="type1_133" type="type1" route="en" depart="278.9007789244188" />
<vehicle id="emv_5" type="rescue" route="ws" depart="284.4773364215367" />
<vehicle id="type1_134" type="type1" route="ws" depart="285.65727711852753" />
<vehicle id="type1_135" type="type1" route="ns" depart="285.80938404519566" />
<vehicle id="type1_136" type="type1" route="ws" depart="286.72371503989075" />
<vehicle id="type1_137" type="type1" route="es" depart="287.28694474750665" />
<vehicle id="type1_138" type="type1" route="se" depart="291.86684006643" />
<vehicle id="type1_139" type="type1" route="se" depart="293.4608944953493" />
<vehicle id="type1_140" type="type1" route="ne" depart="294.63664374601984" />
<vehicle id="type1_141" type="type1" route="ns" depart="297.68795524081327" />
<vehicle id="type1_142" type="type1" route="ws" depart="298.23982364670184" />
<vehicle id="type1_143" type="type1" route="we" depart="299.5774812798369" />
<vehicle id="type1_144" type="type1" route="nw" depart="302.09464556124254" />
<vehicle id="type1_145" type="type1" route="ns" depart="302.1215288752062" />
<vehicle id="type1_146" type="type1" route="ws" depart="302.5602954444678" />
<vehicle id="type1_147" type="type1" route="ew" depart="304.4236589528188" />
<vehicle id="type1_148" type="type1" route="ns" depart="304.593366341934" />
<vehicle id="type1_149" type="type1" route="se" depart="305.12288904693446" />
<vehicle id="type1_150" type="type1" route="ws" depart="305.42976358789775" />
<vehicle id="type1_151" type="type1" route="se" depart="306.09087068011996" />
<vehicle id="type1_152" type="type1" route="we" depart="307.4641822283946" />
<vehicle id="type1_153" type="type1" route="ne" depart="308.86271848258906" />
<vehicle id="type1_154" type="type1" route="sn" depart="309.13624234458655" />
<vehicle id="type1_155" type="type1" route="wn" depart="311.71675468012756" />
<vehicle id="type1_156" type="type1" route="se" depart="314.01810885990886" />
<vehicle id="type1_157" type="type1" route="sn" depart="315.5612179442572" />
<vehicle id="type1_158" type="type1" route="ne" depart="316.20250912464337" />
<vehicle id="type1_159" type="type1" route="sn" depart="317.8789962346003" />
<vehicle id="type1_160" type="type1" route="we" depart="320.9612490838283" />
<vehicle id="type1_161" type="type1" route="es" depart="325.45855517412343" />
<vehicle id="type1_162" type="type1" route="sw" depart="330.76360136092114" />
<vehicle id="type1_163" type="type1" route="wn" depart="330.8766656139188" />
<vehicle id="type1_164" type="type1" route="ne" depart="331.4087866563677" />
<vehicle id="type1_165" type="type1" route="ew" depart="335.9094385248746" />
<vehicle id="type1_166" type="type1" route="sw" depart="336.26084125554047" />
<vehicle id="type1_167" type="type1" route="en" depart="339.77927629726145" />
<vehicle id="type1_168" type="type1" route="nw" depart="340.25883973872453" />
<vehicle id="type1_169" type="type1" route="en" depart="341.1728747213346" />
<vehicle id="type1_170" type="type1" route="es" depart="342.8951678154024" />
<vehicle id="type1_171" type="type1" route="ws" depart="344.46867213212005" />
<vehicle id="type1_172" type="type1" route="se" depart="348.543322606364" />
<vehicle id="type1_173" type="type1" route="se" depart="349.03277620964525" />
<vehicle id="type1_174" type="type1" route="es" depart="352.0381357573386" />
<vehicle id="type1_175" type="type1" route="ns" depart="355.327763174104" />
<vehicle id="type1_176" type="type1" route="ws" depart="358.7369021277165" />
<vehicle id="type1_177" type="type1" route="ns" depart="362.90361717977345" />
<vehicle id="type1_178" type="type1" route="sw" depart="363.85990482318925" />
<vehicle id="type1_179" type="type1" route="se" depart="364.31633226033705" />
<vehicle id="type1_180" type="type1" route="we" depart="366.42484434246705" />
<vehicle id="type1_181" type="type1" route="sw" depart="372.40569869437957" />
<vehicle id="type1_182" type="type1" route="ne" depart="374.33928747790685" />
<vehicle id="type1_183" type="type1" route="ne" depart="376.3645385494675" />
<vehicle id="type1_184" type="type1" route="en" depart="381.1605126450468" />
<vehicle id="type1_185" type="type1" route="en" depart="382.66670229843595" />
<vehicle id="type1_186" type="type1" route="nw" depart="383.19018984851" />
<vehicle id="type1_187" type="type1" route="ws" depart="384.3710305337218" />
<vehicle id="type1_188" type="type1" route="se" depart="385.12065874893995" />
<vehicle id="type1_189" type="type1" route="ns" depart="388.91583843802647" />
<vehicle id="type1_190" type="type1" route="ws" depart="401.24893693815955" />
<vehicle id="type1_191" type="type1" route="sw" depart="406.06824846798435" />
<vehicle id="type1_192" type="type1" route="en" depart="409.10751755889083" />
<vehicle id="type1_193" type="type1" route="wn" depart="411.1142495125464" />
<vehicle id="type1_194" type="type1" route="nw" depart="413.4194488396858" />
<vehicle id="type1_195" type="type1" route="en" depart="413.8629241381249" />
<vehicle id="type1_196" type="type1" route="sw" depart="413.9728041803818" />
<vehicle id="type1_197" type="type1" route="sw" depart="415.1782742574567" />
<vehicle id="type1_198" type="type1" route="se" depart="419.7945320065874" />
<vehicle id="type1_199" type="type1" route="ws" depart="420.0711764468943" />
<vehicle id="type1_200" type="type1" route="en" depart="422.4772263752301" />
<vehicle id="type1_201" type="type1" route="ws" depart="430.8001135156548" />
<vehicle id="type1_202" type="type1" route="sw" depart="432.1356577587864" />
<vehicle id="type1_203" type="type1" route="ns" depart="432.19235077103315" />
<vehicle id="type1_204" type="type1" route="wn" depart="434.4788051909722" />
<vehicle id="type1_205" type="type1" route="ws" depart="438.8018622858255" />
<vehicle id="type1_206" type="type1" route="nw" depart="438.94785376962795" />
<vehicle id="type1_207" type="type1" route="en" depart="439.8783475159628" />
<vehicle id="type1_208" type="type1" route="se" depart="441.4502560223531" />
<vehicle id="type1_209" type="type1" route="sn" depart="442.9181187946274" />
<vehicle id="type1_210" type="type1" route="en" depart="443.51603370471366" />
<vehicle id="type1_211" type="type1" route="se" depart="444.55223818524365" />
<vehicle id="type1_212" type="type1" route="sw" depart="445.65320004554417" />
<vehicle id="type1_213" type="type1" route="nw" depart="447.0278218532021" />
<vehicle id="type1_214" type="type1" route="wn" depart="447.31056352058386" />
<vehicle id="type1_215" type="type1" route="ne" depart="448.07360842410384" />
<vehicle id="type1_216" type="type1" route="es" depart="448.4874504341758" />
<vehicle id="type1_217" type="type1" route="wn" depart="448.5518053368327" />
<vehicle id="type1_218" type="type1" route="se" depart="452.20011182903767" />
<vehicle id="type1_219" type="type1" route="we" depart="452.6326564876326" />
<vehicle id="type1_220" type="type1" route="ne" depart="454.4564177238402" />
<vehicle id="type1_221" type="type1" route="we" depart="461.139569807203" />
<vehicle id="type1_222" type="type1" route="es" depart="467.1105087619058" />
<vehicle id="type1_223" type="type1" route="se" depart="473.9916168210925" />
<vehicle id="type1_224" type="type1" route="sw" depart="476.7666108700512" />
<vehicle id="type1_225" type="type1" route="ew" depart="478.2710857207782" />
<vehicle id="type1_226" type="type1" route="en" depart="483.93139915893425" />
<vehicle id="type1_227" type="type1" route="wn" depart="485.9700663589478" />
<vehicle id="type1_228" type="type1" route="sn" depart="486.72269245783286" />
<vehicle id="type1_229" type="type1" route="wn" depart="487.5673380450023" />
<vehicle id="type1_230" type="type1" route="ew" depart="488.0236854314221" />
<vehicle id="type1_231" type="type1" route="en" depart="497.9324371621651" />
<vehicle id="type1_232" type="type1" route="ne" depart="499.257700400652" />
<vehicle id="type1_233" type="type1" route="es" depart="500.4878684719964" />
<vehicle id="type1_234" type="type1" route="ns" depart="500.56594143779375" />
<vehicle id="type1_235" type="type1" route="es" depart="501.08730460727674" />
<vehicle id="type1_236" type="type1" route="sw" depart="503.82245208116893" />
<vehicle id="type1_237" type="type1" route="ns" depart="506.7997514599093" />
<vehicle id="type1_238" type="type1" route="en" depart="507.1738962958143" />
<vehicle id="type1_239" type="type1" route="se" depart="507.54489759458255" />
<vehicle id="type1_240" type="type1" route="sn" depart="513.9798039254144" />
<vehicle id="type1_241" type="type1" route="ew" depart="515.1292841429591" />
<vehicle id="type1_242" type="type1" route="wn" depart="517.3997270776105" />
<vehicle id="type1_243" type="type1" route="we" depart="518.3817122570836" />
<vehicle id="type1_244" type="type1" route="sn" depart="518.617836055678" />
<vehicle id="type1_245" type="type1" route="sn" depart="519.6208622203384" />
<vehicle id="type1_246" type="type1" route="es" depart="519.8694576358861" />
<vehicle id="type1_247" type="type1" route="wn" depart="522.3329800505678" />
<vehicle id="type1_248" type="type1" route="se" depart="523.3137309221439" />
<vehicle id="type1_249" type="type1" route="sn" depart="523.5842411213364" />
<vehicle id="type1_250" type="type1" route="ns" depart="526.2069501405404" />
<vehicle id="type1_251" type="type1" route="sn" depart="526.3159198908019" />
<vehicle id="type1_252" type="type1" route="ws" depart="526.3738535495994" />
<vehicle id="type1_253" type="type1" route="en" depart="526.8594340966105" />
<vehicle id="type1_254" type="type1" route="sn" depart="526.9393291914396" />
<vehicle id="type1_255" type="type1" route="ns" depart="529.0045592540988" />
<vehicle id="type1_256" type="type1" route="wn" depart="529.2268207974173" />
<vehicle id="type1_257" type="type1" route="en" depart="529.681135176001" />
<vehicle id="type1_258" type="type1" route="nw" depart="530.9106462480958" />
<vehicle id="type1_259" type="type1" route="nw" depart="532.6519599102096" />
<vehicle id="type1_260" type="type1" route="nw" depart="534.2608102320993" />
<vehicle id="type1_261" type="type1" route="ne" depart="535.8142266035422" />
<vehicle id="type1_262" type="type1" route="ws" depart="536.2507690568336" />
<vehicle id="type1_263" type="type1" route="nw" depart="540.822090347686" />
<vehicle id="type1_264" type="type1" route="wn" depart="541.9672098368459" />
<vehicle id="type1_265" type="type1" route="sw" depart="542.1149971112119" />
<vehicle id="type1_266" type="type1" route="es" depart="544.3325597465774" />
<vehicle id="type1_267" type="type1" route="ns" depart="546.1224854806079" />
<vehicle id="type1_268" type="type1" route="ne" depart="550.5617579487771" />
<vehicle id="type1_269" type="type1" route="ew" depart="551.4178073557774" />
<vehicle id="type1_270" type="type1" route="ws" depart="552.6485158578627" />
<vehicle id="type1_271" type="type1" route="ne" depart="552.6750735951739" />
<vehicle id="type1_272" type="type1" route="sw" depart="554.8578068220642" />
<vehicle id="type1_273" type="type1" route="nw" depart="556.0922793686296" />
<vehicle id="type1_274" type="type1" route="ew" depart="556.2075968661736" />
<vehicle id="type1_275" type="type1" route="wn" depart="558.7286442226272" />
<vehicle id="type1_276" type="type1" route="ew" depart="562.4865801240163" />
<vehicle id="type1_277" type="type1" route="ew" depart="563.1743125406736" />
<vehicle id="type1_278" type="type1" route="sn" depart="563.3936434677388" />
<vehicle id="type1_279" type="type1" route="ns" depart="566.8828120353371" />
<vehicle id="type1_280" type="type1" route="ns" depart="572.2384657929412" />
<vehicle id="type1_281" type="type1" route="ne" depart="573.729160556487" />
<vehicle id="type1_282" type="type1" route="sw" depart="578.4018971740246" />
<vehicle id="type1_283" type="type1" route="se" depart="581.6991865009563" />
<vehicle id="type1_284" type="type1" route="sw" depart="583.3572678262128" />
<vehicle id="type1_285" type="type1" route="ew" depart="585.1667234277479" />
<vehicle id="type1_286" type="type1" route="se" depart="590.5215542365617" />
<vehicle id="type1_287" type="type1" route="we" depart="592.1911367367873" />
<vehicle id="type1_288" type="type1" route="we" depart="592.6879245726649" />
<vehicle id="type1_289" type="type1" route="ew" depart="592.873202527364" />
<vehicle id="type1_290" type="type1" route="en" depart="594.5270939440126" />
<vehicle id="type1_291" type="type1" route="en" depart="594.858788928953" />
<vehicle id="type1_292" type="type1" route="nw" depart="594.9316939135507" />
<vehicle id="type1_293" type="type1" route="sn" depart="595.7812916345309" />
<vehicle id="type1_294" type="type1" route="ne" depart="596.924276742536" />
<vehicle id="type1_295" type="type1" route="ws" depart="598.7412922721539" />
<vehicle id="type1_296" type="type1" route="ew" depart="600.7168691037764" />
<vehicle id="type1_297" type="type1" route="we" depart="601.3022393758847" />
<vehicle id="type1_298" type="type1" route="wn" depart="603.9241702940247" />
<vehicle id="type1_299" type="type1" route="es" depart="605.1514371925958" />
<vehicle id="type1_300" type="type1" route="es" depart="605.4903953423644" />
<vehicle id="type1_301" type="type1" route="ew" depart="610.219171005915" />
<vehicle id="emv_6" type="rescue" route="en" depart="612.2954487983448" />
<vehicle id="type1_302" type="type1" route="sn" depart="613.8152379504128" />
<vehicle id="type1_303" type="type1" route="wn" depart="616.2992165016624" />
<vehicle id="type1_304" type="type1" route="es" depart="616.3316510024341" />
<vehicle id="type1_305" type="type1" route="ws" depart="616.3521046060908" />
<vehicle id="type1_306" type="type1" route="sw" depart="618.5491453472063" />
<vehicle id="type1_307" type="type1" route="nw" depart="619.0149014643292" />
<vehicle id="type1_308" type="type1" route="we" depart="619.9518204227737" />
<vehicle id="type1_309" type="type1" route="we" depart="620.9356009032743" />
<vehicle id="type1_310" type="type1" route="ew" depart="623.4834048488935" />
<vehicle id="type1_311" type="type1" route="sn" depart="623.8894151507002" />
<vehicle id="type1_312" type="type1" route="ws" depart="626.8895545637095" />
<vehicle id="type1_313" type="type1" route="ns" depart="627.3100262888644" />
<vehicle id="type1_314" type="type1" route="sn" depart="627.6629927352038" />
<vehicle id="type1_315" type="type1" route="en" depart="630.6439817583987" />
<vehicle id="type1_316" type="type1" route="we" depart="630.9260191147259" />
<vehicle id="type1_317" type="type1" route="ws" depart="633.3036992883218" />
<vehicle id="type1_318" type="type1" route="ne" depart="636.1649399749333" />
<vehicle id="type1_319" type="type1" route="ne" depart="637.1522368087928" />
<vehicle id="type1_320" type="type1" route="sw" depart="638.3994186547417" />
<vehicle id="type1_321" type="type1" route="en" depart="641.2397022060189" />
<vehicle id="type1_322" type="type1" route="se" depart="645.8521473765003" />
<vehicle id="type1_323" type="type1" route="sw" depart="646.6513089105748" />
<vehicle id="type1_324" type="type1" route="sn" depart="649.5975057603539" />
<vehicle id="type1_325" type="type1" route="es" depart="650.1850766283883" />
<vehicle id="type1_326" type="type1" route="ns" depart="650.270199084136" />
<vehicle id="type1_327" type="type1" route="we" depart="654.3713312528245" />
<vehicle id="type1_328" type="type1" route="we" depart="656.8854561838666" />
<vehicle id="emv_7" type="rescue" route="en" depart="660.731025493561" />
<vehicle id="type1_329" type="type1" route="ne" depart="660.8723528524315" />
<vehicle id="type1_330" type="type1" route="en" depart="665.5164375536418" />
<vehicle id="type1_331" type="type1" route="ne" depart="665.8794182278555" />
<vehicle id="type1_332" type="type1" route="ew" depart="666.5138705576996" />
<vehicle id="type1_333" type="type1" route="es" depart="666.7998379610484" />
<vehicle id="type1_334" type="type1" route="wn" depart="668.0085090590348" />
<vehicle id="type1_335" type="type1" route="wn" depart="668.941852687684" />
<vehicle id="type1_336" type="type1" route="ew" depart="674.0990165480572" />
<vehicle id="type1_337" type="type1" route="sw" depart="675.1602565052757" />
<vehicle id="type1_338" type="type1" route="ws" depart="675.6561595824186" />
<vehicle id="type1_339" type="type1" route="ns" depart="676.5429799157611" />
<vehicle id="type1_340" type="type1" route="se" depart="679.9926986233814" />
<vehicle id="type1_341" type="type1" route="wn" depart="681.5177352485861" />
<vehicle id="type1_342" type="type1" route="se" depart="686.5049862197769" />
<vehicle id="type1_343" type="type1" route="es" depart="687.0172314434914" />
<vehicle id="type1_344" type="type1" route="sn" depart="687.0462628300027" />
<vehicle id="type1_345" type="type1" route="ne" depart="688.0889382432013" />
<vehicle id="type1_346" type="type1" route="ne" depart="693.7473422643815" />
<vehicle id="type1_347" type="type1" route="en" depart="694.0046947236922" />
<vehicle id="type1_348" type="type1" route="se" depart="694.8958318076241" />
<vehicle id="type1_349" type="type1" route="ew" depart="695.5504256496505" />
<vehicle id="type1_350" type="type1" route="nw" depart="699.0386354813464" />
<vehicle id="type1_351" type="type1" route="es" depart="699.1152141376546" />
<vehicle id="type1_352" type="type1" route="wn" depart="699.4110440985332" />
<vehicle id="type1_353" type="type1" route="ns" depart="699.5277544790082" />
<vehicle id="type1_354" type="type1" route="ws" depart="700.8654576477227" />
<vehicle id="type1_355" type="type1" route="ne" depart="701.7566291460877" />
<vehicle id="type1_356" type="type1" route="ws" depart="703.2103603976599" />
<vehicle id="type1_357" type="type1" route="ns" depart="707.2452401763612" />
<vehicle id="type1_358" type="type1" route="es" depart="708.8010162689307" />
<vehicle id="type1_359" type="type1" route="ns" depart="709.8461796587386" />