<routes>
            <vType id="type1" accel="0.8" decel="4.5" sigma="0.5" length="5" maxSpeed="70"/>
            <vType id="rescue" vClass="emergency" speedFactor="1.5" guiShape="emergency">
                <param key="has.bluelight.device" value="true"/>
            </vType>
            <route id="ne" edges="ni eo"/>
            <route id="ns" edges="ni so"/>
            <route id="nw" edges="ni wo"/>
            <route id="en" edges="ei no"/>
            <route id="es" edges="ei so"/>
            <route id="ew" edges="ei wo"/>
            <route id="sn" edges="si no"/>
            <route id="se" edges="si eo"/>
            <route id="sw" edges="si wo"/>
            <route id="wn" edges="wi no"/>
            <route id="we" edges="wi eo"/>
            <route id="ws" edges="wi so"/>
        
            <personFlow id="p_we" begin="0" end="400" period="50">
                <walk route="we"/>
            </personFlow>
                         
            <personFlow id="p_ns" begin="0" end="400" period="50">
                <walk route="ns"/>
            </personFlow>
                         
            <personFlow id="p_ew" begin="0" end="400" period="50">
                <walk route="ew"/>
            </personFlow>
                         
            <personFlow id="p_sn" begin="0" end="400" period="50">
                <walk route="sn"/>
            </personFlow>
                         <vehicle id="type1_1" type="type1" route="sw" depart="2.457420008410482" />
<vehicle id="type1_2" type="type1" route="en" depart="2.484759365004718" />
<vehicle id="type1_3" type="type1" route="ew" depart="2.61990933959395" />
<vehicle id="type1_4" type="type1" route="wn" depart="2.673601870433356" />
<vehicle id="type1_5" type="type1" route="nw" depart="3.8490085751703016" />
<vehicle id="type1_6" type="type1" route="sw" depart="4.624267110934696" />
<vehicle id="type1_7" type="type1" route="en" depart="14.994782677637172" />
<vehicle id="type1_8" type="type1" route="ws" depart="16.826346193188176" />
<vehicle id="type1_9" type="type1" route="ew" depart="21.026427236524324" />
<vehicle id="type1_10" type="type1" route="ne" depart="22.00414827272128" />
<vehicle id="type1_11" type="type1" route="nw" depart="23.123124245155424" />
<vehicle id="type1_12" type="type1" route="nw" depart="23.309995339934215" />
<vehicle id="type1_13" type="type1" route="sn" depart="25.57258220776358" />
<vehicle id="type1_14" type="type1" route="ew" depart="30.545536808861673" />
<vehicle id="type1_15" type="type1" route="wn" depart="30.957173932387807" />
<vehicle id="type1_16" type="type1" route="wn" depart="32.02590174766831" />
<vehicle id="type1_17" type="type1" route="ns" depart="34.44962433151021" />
<vehicle id="type1_18" type="type1" route="es" depart="36.31758717108747" />
<vehicle id="type1_19" type="type1" route="sn" depart="36.4136632522802" />
<vehicle id="type1_20" type="type1" route="ew" depart="39.270126777485736" />
<vehicle id="type1_21" type="type1" route="en" depart="39.39975634536367" />
<vehicle id="type1_22" type="type1" route="en" depart="41.164705084736646" />
<vehicle id="type1_23" type="type1" route="we" depart="44.62208007508146" />
<vehicle id="type1_24" type="type1" route="ns" depart="45.40535109899945" />
<vehicle id="type1_25" type="type1" route="en" depart="45.62069513299517" />
<vehicle id="type1_26" type="type1" route="en" depart="46.18775550654316" />
<vehicle id="type1_27" type="type1" route="es" depart="47.703644265866245" />
<vehicle id="type1_28" type="type1" route="es" depart="53.51163698370243" />
<vehicle id="type1_29" type="type1" route="sw" depart="54.6758028306175" />
<vehicle id="type1_30" type="type1" route="en" depart="55.8278467700617" />
<vehicle id="type1_31" type="type1" route="en" depart="57.90944638984603" />
<vehicle id="type1_32" type="type1" route="wn" depart="61.08081854472217" />
<vehicle id="type1_33" type="type1" route="en" depart="63.39976568988581" />
<vehicle id="type1_34" type="type1" route="we" depart="65.39544014035111" />
<vehicle id="type1_35" type="type1" route="ns" depart="75.61166856728882" />
<vehicle id="type1_36" type="type1" route="en" depart="76.7129812390618" />
<vehicle id="type1_37" type="type1" route="en" depart="78.9970260258277" />
<vehicle id="type1_38" type="type1" route="ne" depart="79.64692966018855" />
<vehicle id="type1_39" type="type1" route="sw" depart="80.74069919656863" />
<vehicle id="type1_40" type="type1" route="sw" depart="93.23829953263666" />
<vehicle id="type1_41" type="type1" route="ew" depart="93.5482954851116" />
<vehicle id="type1_42" type="type1" route="nw" depart="96.94778073585523" />
<vehicle id="type1_43" type="type1" route="ew" depart="100.18917065159046" />
<vehicle id="type1_44" type="type1" route="ne" depart="100.75103046421033" />
<vehicle id="type1_45" type="type1" route="sw" depart="100.87003213512546" />
<vehicle id="type1_46" type="type1" route="ws" depart="102.65217727185156" />
<vehicle id="type1_47" type="type1" route="se" depart="104.09206771525912" />
<vehicle id="type1_48" type="type1" route="ws" depart="105.359025758787" />
<vehicle id="type1_49" type="type1" route="we" depart="106.38344451766697" />
<vehicle id="type1_50" type="type1" route="es" depart="106.71499600964039" />
<vehicle id="type1_51" type="type1" route="es" depart="108.74078591490816" />
<vehicle id="type1_52" type="type1" route="sw" depart="114.71448975865664" />
<vehicle id="type1_53" type="type1" route="we" depart="115.76866669412819" />
<vehicle id="type1_54" type="type1" route="se" depart="115.76893368046154" />
<vehicle id="type1_55" type="type1" route="we" depart="116.32668074425332" />
<vehicle id="type1_56" type="type1" route="ws" depart="120.01622816072782" />
<vehicle id="type1_57" type="type1" route="nw" depart="120.54486414364634" />
<vehicle id="type1_58" type="type1" route="we" depart="121.53663938013469" />
<vehicle id="type1_59" type="type1" route="nw" depart="122.2449759110956" />
<vehicle id="type1_60" type="type1" route="ws" depart="123.93530716755562" />
<vehicle id="type1_61" type="type1" route="sw" depart="124.64059183813279" />
<vehicle id="type1_62" type="type1" route="es" depart="127.20203726178559" />
<vehicle id="type1_63" type="type1" route="se" depart="127.23162967127155" />
<vehicle id="type1_64" type="type1" route="nw" depart="128.45342097290973" />
<vehicle id="type1_65" type="type1" route="ew" depart="128.48019148718004" />
<vehicle id="type1_66" type="type1" route="se" depart="129.38421143457958" />
<vehicle id="type1_67" type="type1" route="we" depart="131.5172326295396" />
<vehicle id="type1_68" type="type1" route="we" depart="132.03220394940416" />
<vehicle id="type1_69" type="type1" route="en" depart="132.7382598998949" />
<vehicle id="type1_70" type="type1" route="wn" depart="132.96793968538225" />
<vehicle id="type1_71" type="type1" route="nw" depart="133.1125952718099" />
<vehicle id="type1_72" type="type1" route="ne" depart="134.51956108113188" />
<vehicle id="type1_73" type="type1" route="sw" depart="137.30740308882517" />
<vehicle id="type1_74" type="type1" route="se" depart="137.8930187415371" />
<vehicle id="type1_75" type="type1" route="nw" depart="138.27553533104643" />
<vehicle id="type1_76" type="type1" route="ns" depart="138.7545704157473" />
<vehicle id="type1_77" type="type1" route="se" depart="144.94748085054582" />
<vehicle id="type1_78" type="type1" route="se" depart="145.49265357828236" />
<vehicle id="type1_79" type="type1" route="ws" depart="147.8973329640549" />
<vehicle id="type1_80" type="type1" route="ws" depart="153.08990395159606" />
<vehicle id="type1_81" type="type1" route="es" depart="160.864867486789" />
<vehicle id="type1_82" type="type1" route="ne" depart="161.008266835888" />
<vehicle id="type1_83" type="type1" route="en" depart="162.2021805160349" />
<vehicle id="type1_84" type="type1" route="ns" depart="171.87612968020332" />
<vehicle id="type1_85" type="type1" route="sn" depart="172.2926097527087" />
<vehicle id="type1_86" type="type1" route="en" depart="172.92282957091246" />
<vehicle id="type1_87" type="type1" route="en" depart="175.75402665201753" />
<vehicle id="type1_88" type="type1" route="en" depart="177.259101112878" />
<vehicle id="type1_89" type="type1" route="we" depart="185.23280906525815" />
<vehicle id="type1_90" type="type1" route="nw" depart="188.2648344124557" />
<vehicle id="type1_91" type="type1" route="sn" depart="188.3851020939759" />
<vehicle id="type1_92" type="type1" route="we" depart="188.88020156755923" />
<vehicle id="type1_93" type="type1" route="se" depart="191.19134289471418" />
<vehicle id="type1_94" type="type1" route="ne" depart="194.8406411877566" />
<vehicle id="type1_95" type="type1" route="se" depart="195.97260562701283" />
<vehicle id="type1_96" type="type1" route="es" depart="209.6280951704443" />
<vehicle id="type1_97" type="type1" route="ne" depart="213.52309080239428" />
<vehicle id="type1_98" type="type1" route="sw" depart="214.6289139009155" />
<vehicle id="type1_99" type="type1" route="ew" depart="216.0408648036494" />
<vehicle id="type1_100" type="type1" route="ew" depart="217.64633361838926" />
<vehicle id="type1_101" type="type1" route="ns" depart="218.578822461765" />
<vehicle id="type1_102" type="type1" route="wn" depart="221.30183871231498" />
<vehicle id="type1_103" type="type1" route="we" depart="223.117408285277" />
<vehicle id="type1_104" type="type1" route="sw" depart="224.02733458275418" />
<vehicle id="type1_105" type="type1" route="ns" depart="226.7280705280851" />
<vehicle id="type1_106" type="type1" route="en" depart="228.61288805587566" />
<vehicle id="type1_107" type="type1" route="en" depart="233.9766180338286" />
<vehicle id="type1_108" type="type1" route="ne" depart="234.9477854289376" />
<vehicle id="type1_109" type="type1" route="ew" depart="237.49111565885127" />
<vehicle id="type1_110" type="type1" route="ws" depart="238.49562393284418" />
<vehicle id="type1_111" type="type1" route="es" depart="239.10867374486156" />
<vehicle id="type1_112" type="type1" route="es" depart="239.92049756235988" />
<vehicle id="type1_113" type="type1" route="we" depart="246.2621830976814" />
<vehicle id="type1_114" type="type1" route="ne" depart="246.27394829220378" />
<vehicle id="type1_115" type="type1" route="we" depart="249.5675043409924" />
<vehicle id="type1_116" type="type1" route="es" depart="250.6993591381056" />
<vehicle id="type1_117" type="type1" route="sn" depart="256.51405032808094" />
<vehicle id="type1_118" type="type1" route="wn" depart="263.15721726577203" />
<vehicle id="type1_119" type="type1" route="nw" depart="265.26835679488397" />
<vehicle id="type1_120" type="type1" route="se" depart="266.53043957171656" />
<vehicle id="type1_121" type="type1" route="wn" depart="266.5879105981873" />
<vehicle id="type1_122" type="type1" route="ws" depart="266.8719183767026" />
<vehicle id="type1_123" type="type1" route="en" depart="270.11227773735146" />
<vehicle id="type1_124" type="type1" route="se" depart="270.63774316188596" />
<vehicle id="emv_1" type="rescue" route="ne" depart="275.5793023050143" />
<vehicle id="type1_125" type="type1" route="en" depart="277.17870219564577" />
<vehicle id="type1_126" type="type1" route="we" depart="280.91371173797614" />
<vehicle id="type1_127" type="type1" route="sw" depart="285.236791521919" />
<vehicle id="type1_128" type="type1" route="en" depart="287.30267283096083" />
<vehicle id="type1_129" type="type1" route="ws" depart="293.8258436322763" />
<vehicle id="type1_130" type="type1" route="en" depart="297.0070411912211" />
<vehicle id="type1_131" type="type1" route="ns" depart="298.3958063860885" />
<vehicle id="type1_132" type="type1" route="ns" depart="299.6055696122581" />
<vehicle id="type1_133" type="type1" route="es" depart="299.7681141531424" />
<vehicle id="type1_134" type="type1" route="sn" depart="301.11720602376323" />
<vehicle id="type1_135" type="type1" route="nw" depart="301.8162268475734" />
<vehicle id="type1_136" type="type1" route="ns" depart="302.416081275863" />
<vehicle id="type1_137" type="type1" route="nw" depart="302.98753060512354" />
<vehicle id="type1_138" type="type1" route="ne" depart="303.8277193983659" />
<vehicle id="type1_139" type="type1" route="ns" depart="308.25310007075024" />
<vehicle id="type1_140" type="type1" route="es" depart="309.9904879952355" />
<vehicle id="type1_141" type="type1" route="ns" depart="313.4410383582401" />
<vehicle id="type1_142" type="type1" route="es" depart="315.3555393570642" />
<vehicle id="type1_143" type="type1" route="ne" depart="316.72481589149294" />
<vehicle id="type1_144" type="type1" route="we" depart="318.19558230371337" />
<vehicle id="type1_145" type="type1" route="en" depart="319.56864711306366" />
<vehicle id="type1_146" type="type1" route="ws" depart="320.0415672589715" />
<vehicle id="type1_147" type="type1" route="ns" depart="321.62305176049205" />
<vehicle id="type1_148" type="type1" route="we" depart="322.2888393269954" />
<vehicle id="type1_149" type="type1" route="wn" depart="323.9620793688154" />
<vehicle id="emv_2" type="rescue" route="es" depart="325.494467726597" />
<vehicle id="type1_150" type="type1" route="ne" depart="325.52093461264747" />
<vehicle id="type1_151" type="type1" route="nw" depart="329.5329081801542" />
<vehicle id="type1_152" type="type1" route="ws" depart="332.4682672319719" />
<vehicle id="type1_153" type="type1" route="sw" depart="333.4264104275711" />
<vehicle id="type1_154" type="type1" route="we" depart="334.415303709584" />
<vehicle id="type1_155" type="type1" route="en" depart="335.77452034811864" />
<vehicle id="type1_156" type="type1" route="en" depart="335.9939804528121" />
<vehicle id="type1_157" type="type1" route="nw" depart="336.66453171624545" />
<vehicle id="type1_158" type="type1" route="ew" depart="336.9523607698112" />
<vehicle id="type1_159" type="type1" route="ws" depart="339.3766473090049" />
<vehicle id="type1_160" type="type1" route="ew" depart="340.57616150339896" />
<vehicle id="type1_161" type="type1" route="we" depart="341.35823675533925" />
<vehicle id="type1_162" type="type1" route="ws" depart="342.12012118479254" />
<vehicle id="type1_163" type="type1" route="ne" depart="344.550936524114" />
<vehicle id="type1_164" type="type1" route="sn" depart="347.2599191194013" />
<vehicle id="type1_165" type="type1" route="ew" depart="351.0042637494162" />
<vehicle id="type1_166" type="type1" route="es" depart="352.48144042535876" />
<vehicle id="type1_167" type="type1" route="ew" depart="354.8032486877873" />
<vehicle id="type1_168" type="type1" route="sn" depart="357.56233167037186" />
<vehicle id="type1_169" type="type1" route="sw" depart="360.7501581330182" />
<vehicle id="type1_170" type="type1" route="nw" depart="362.0772452303672" />
<vehicle id="type1_171" type="type1" route="wn" depart="363.28180639499436" />
<vehicle id="type1_172" type="type1" route="ns" depart="364.92117370123884" />
<vehicle id="type1_173" type="type1" route="sw" depart="365.06567834966626" />
<vehicle id="type1_174" type="type1" route="ne" depart="367.25604966261125" />
<vehicle id="type1_175" type="type1" route="ws" depart="367.75623008546626" />
<vehicle id="type1_176" type="type1" route="sw" depart="368.23217889295205" />
<vehicle id="type1_177" type="type1" route="wn" depart="373.9500068454383" />
<vehicle id="type1_178" type="type1" route="ne" depart="375.42244870353824" />
<vehicle id="type1_179" type="type1" route="ne" depart="376.0361069164972" />
<vehicle id="type1_180" type="type1" route="se" depart="377.31844129689426" />
<vehicle id="type1_181" type="type1" route="sw" depart="377.39435826774763" />
<vehicle id="type1_182" type="type1" route="ns" depart="379.82428904386796" />
<vehicle id="type1_183" type="type1" route="es" depart="381.84677756296026" />
<vehicle id="type1_184" type="type1" route="ew" depart="382.1204349212129" />
<vehicle id="type1_185" type="type1" route="en" depart="382.38348432458855" />
<vehicle id="type1_186" type="type1" route="ne" depart="383.23635331479875" />
<vehicle id="type1_187" type="type1" route="wn" depart="385.07038554396263" />
<vehicle id="type1_188" type="type1" route="se" depart="385.3168892960851" />
<vehicle id="type1_189" type="type1" route="ew" depart="385.9054869492907" />
<vehicle id="type1_190" type="type1" route="ws" depart="388.9729623849301" />
<vehicle id="type1_191" type="type1" route="ns" depart="389.06012430932543" />
<vehicle id="type1_192" type="type1" route="ws" depart="389.8662528330906" />
<vehicle id="type1_193" type="type1" route="ns" depart="390.8987717801933" />
<vehicle id="type1_194" type="type1" route="ne" depart="391.21203037048684" />
<vehicle id="type1_195" type="type1" route="ne" depart="392.2912691368799" />
<vehicle id="type1_196" type="type1" route="se" depart="395.6826971311025" />
<vehicle id="type1_197" type="type1" route="we" depart="396.79851551279444" />
<vehicle id="type1_198" type="type1" route="se" depart="397.2888338230664" />
<vehicle id="type1_199" type="type1" route="en" depart="397.4904246845761" />
<vehicle id="type1_200" type="type1" route="nw" depart="399.6075072856482" />
<vehicle id="type1_201" type="type1" route="nw" depart="407.66269299367104" />
<vehicle id="type1_202" type="type1" route="nw" depart="407.93729432185904" />
<vehicle id="type1_203" type="type1" route="ew" depart="411.8428692640591" />
<vehicle id="type1_204" type="type1" route="ns" depart="413.1646780211782" />
<vehicle id="type1_205" type="type1" route="es" depart="415.6369000435969" />
<vehicle id="type1_206" type="type1" route="ws" depart="416.09875602940264" />
<vehicle id="type1_207" type="type1" route="se" depart="416.8816951692315" />
<vehicle id="type1_208" type="type1" route="en" depart="417.73771289640206" />
<vehicle id="emv_3" type="rescue" route="sn" depart="421.03487752849077" />
<vehicle id="type1_209" type="type1" route="en" depart="422.0647354940715" />
<vehicle id="type1_210" type="type1" route="sw" depart="430.80415049786683" />
<vehicle id="type1_211" type="type1" route="nw" depart="434.51214214332373" />
<vehicle id="type1_212" type="type1" route="we" depart="434.98917038285845" />
<vehicle id="type1_213" type="type1" route="ws" depart="436.13718080775305" />
<vehicle id="type1_214" type="type1" route="sw" depart="438.67778032223225" />
<vehicle id="type1_215" type="type1" route="sw" depart="440.00730582795484" />
<vehicle id="type1_216" type="type1" route="we" depart="440.5556358734939" />
<vehicle id="type1_217" type="type1" route="ne" depart="446.27347564292205" />
<vehicle id="emv_4" type="rescue" route="ns" depart="449.78945751744413" />
<vehicle id="type1_218" type="type1" route="es" depart="452.35435731363975" />
<vehicle id="type1_219" type="type1" route="sn" depart="452.6287309898406" />
<vehicle id="type1_220" type="type1" route="sn" depart="456.33001218268487" />
<vehicle id="type1_221" type="type1" route="ne" depart="458.36979088715475" />
<vehicle id="type1_222" type="type1" route="ew" depart="458.61339136677304" />
<vehicle id="type1_223" type="type1" route="ew" depart="462.3808897656866" />
<vehicle id="type1_224" type="type1" route="es" depart="462.5104377431726" />
<vehicle id="type1_225" type="type1" route="ne" depart="464.3695345125552" />
<vehicle id="type1_226" type="type1" route="we" depart="465.70755814782643" />
<vehicle id="type1_227" type="type1" route="es" depart="465.7484229342648" />
<vehicle id="type1_228" type="type1" route="ew" depart="466.89658611043166" />
<vehicle id="type1_229" type="type1" route="en" depart="469.54650540169814" />
<vehicle id="type1_230" type="type1" route="en" depart="469.564463350273" />
<vehicle id="type1_231" type="type1" route="wn" depart="472.6235715345707" />
<vehicle id="type1_232" type="type1" route="wn" depart="474.3283484663187" />
<vehicle id="type1_233" type="type1" route="sn" depart="475.43052576051133" />
<vehicle id="type1_234" type="type1" route="ws" depart="481.64550867699444" />
<vehicle id="type1_235" type="type1" route="ws" depart="482.1250066581617" />
<vehicle id="type1_236" type="type1" route="es" depart="482.19371450250964" />
<vehicle id="type1_237" type="type1" route="nw" depart="482.2110763878107" />
<vehicle id="type1_238" type="type1" route="es" depart="483.21033802841447" />
<vehicle id="type1_239" type="type1" route="we" depart="485.9493515470884" />
<vehicle id="type1_240" type="type1" route="sn" depart="486.1318119593414" />
<vehicle id="type1_241" type="type1" route="es" depart="487.517429124999" />
<vehicle id="type1_242" type="type1" route="ws" depart="488.95017507848905" />
<vehicle id="type1_243" type="type1" route="sn" depart="491.26160090280354" />
<vehicle id="type1_244" type="type1" route="ew" depart="492.9072232896684" />
<vehicle id="type1_245" type="type1" route="sw" depart="499.90969327210377" />
<vehicle id="type1_246" type="type1" route="sn" depart="504.42516688267324" />
<vehicle id="type1_247" type="type1" route="ws" depart="506.31671865444446" />
<vehicle id="type1_248" type="type1" route="sw" depart="506.5621981447219" />
<vehicle id="type1_249" type="type1" route="ne" depart="511.43519996067806" />
<vehicle id="type1_250" type="type1" route="we" depart="511.49006560978614" />
<vehicle id="emv_5" type="rescue" route="ws" depart="514.1350734565965" />
<vehicle id="type1_251" type="type1" route="sn" depart="515.1689562432641" />
<vehicle id="type1_252" type="type1" route="wn" depart="517.0317273095025" />
<vehicle id="type1_253" type="type1" route="es" depart="519.5466314585957" />
<vehicle id="type1_254" type="type1" route="es" depart="520.2684869121766" />
<vehicle id="type1_255" type="type1" route="en" depart="523.0044533891278" />
<vehicle id="type1_256" type="type1" route="we" depart="523.9955567525319" />
<vehicle id="type1_257" type="type1" route="en" depart="524.3137106715462" />
<vehicle id="type1_258" type="type1" route="ws" depart="526.7424488468821" />
<vehicle id="type1_259" type="type1" route="wn" depart="527.6778763545839" />
<vehicle id="type1_260" type="type1" route="nw" depart="534.5285778710031" />
<vehicle id="type1_261" type="type1" route="wn" depart="536.0551201711077" />
<vehicle id="type1_262" type="type1" route="we" depart="541.3511604700261" />
<vehicle id="type1_263" type="type1" route="sn" depart="541.4202489997306" />
<vehicle id="type1_264" type="type1" route="se" depart="541.6838556693485" />
<vehicle id="type1_265" type="type1" route="en" depart="542.7946592877191" />
<vehicle id="type1_266" type="type1" route="sw" depart="545.135630812587" />
<vehicle id="type1_267" type="type1" route="ew" depart="545.564452291789" />
<vehicle id="type1_268" type="type1" route="en" depart="545.7045959049447" />
<vehicle id="type1_269" type="type1" route="ne" depart="548.1601555729454" />
<vehicle id="type1_270" type="type1" route="we" depart="552.4730305739596" />
<vehicle id="type1_271" type="type1" route="sw" depart="555.1052276243537" />
<vehicle id="type1_272" type="type1" route="ew" depart="556.1598943057977" />
<vehicle id="type1_273" type="type1" route="ne" depart="557.2714913599337" />
<vehicle id="type1_274" type="type1" route="sw" depart="559.3264211709976" />
<vehicle id="type1_275" type="type1" route="se" depart="561.0209362010357" />
<vehicle id="type1_276" type="type1" route="nw" depart="562.6999136989074" />
<vehicle id="type1_277" type="type1" route="wn" depart="562.9850468138434" />
<vehicle id="type1_278" type="type1" route="en" depart="563.9842774411851" />
<vehicle id="type1_279" type="type1" route="sw" depart="564.1725877602546" />
<vehicle id="type1_280" type="type1" route="nw" depart="566.4317540691077" />
<vehicle id="type1_281" type="type1" route="ew" depart="567.5784787745262" />
<vehicle id="type1_282" type="type1" route="es" depart="567.8275544189806" />
<vehicle id="emv_6" type="rescue" route="ws" depart="571.1921098188853" />
<vehicle id="type1_283" type="type1" route="wn" depart="571.9999992207636" />
<vehicle id="type1_284" type="type1" route="ws" depart="572.45325073119" />
<vehicle id="type1_285" type="type1" route="ws" depart="575.4889148660825" />
<vehicle id="type1_286" type="type1" route="nw" depart="575.8757628700203" />
<vehicle id="type1_287" type="type1" route="we" depart="576.3608802316942" />
<vehicle id="type1_288" type="type1" route="en" depart="576.8796759971544" />
<vehicle id="type1_289" type="type1" route="we" depart="578.2270932358555" />
<vehicle id="type1_290" type="type1" route="ew" depart="583.6915479973269" />
<vehicle id="type1_291" type="type1" route="ew" depart="591.2167309070442" />
<vehicle id="type1_292" type="type1" route="ns" depart="591.5729070007282" />
<vehicle id="type1_293" type="type1" route="en" depart="592.7646343016157" />
<vehicle id="type1_294" type="type1" route="nw" depart="598.7475694645547" />
<vehicle id="type1_295" type="type1" route="se" depart="601.746626496634" />
<vehicle id="type1_296" type="type1" route="we" depart="605.0155322267707" />
<vehicle id="type1_297" type="type1" route="ew" depart="608.3837705034146" />
<vehicle id="type1_298" type="type1" route="en" depart="609.3511485748014" />
<vehicle id="type1_299" type="type1" route="we" depart="612.3543224475277" />
<vehicle id="type1_300" type="type1" route="we" depart="613.565860660344" />
<vehicle id="type1_301" type="type1" route="se" depart="615.8556420082954" />
<vehicle id="type1_302" type="type1" route="sn" depart="617.0292631383957" />
<vehicle id="type1_303" type="type1" route="se" depart="619.5485972426816" />
<vehicle id="type1_304" type="type1" route="en" depart="620.9872411284589" />
<vehicle id="type1_305" type="type1" route="sn" depart="621.8652191300694" />
<vehicle id="type1_306" type="type1" route="es" depart="624.0655930455873" />
<vehicle id="type1_307" type="type1" route="ns" depart="627.012566173702" />
<vehicle id="type1_308" type="type1" route="se" depart="627.0621989702861" />
<vehicle id="type1_309" type="type1" route="ew" depart="639.0293683724186" />
<vehicle id="type1_310" type="type1" route="es" depart="640.0471242393719" />
<vehicle id="type1_311" type="type1" route="ns" depart="640.0676418794288" />
<vehicle id="type1_312" type="type1" route="ew" depart="643.6132122978058" />
<vehicle id="type1_313" type="type1" route="ne" depart="645.8162254119657" />
<vehicle id="type1_314" type="type1" route="en" depart="646.2063716188356" />
<vehicle id="type1_315" type="type1" route="ns" depart="646.4526841448895" />
<vehicle id="type1_316" type="type1" route="ew" depart="647.0844737824866" />
<vehicle id="type1_317" type="type1" route="se" depart="648.2575048628366" />
<vehicle id="type1_318" type="type1" route="sn" depart="649.4614676006814" />
<vehicle id="type1_319" type="type1" route="ew" depart="652.6226772829725" />
<vehicle id="type1_320" type="type1" route="sn" depart="652.866129656005" />
<vehicle id="type1_321" type="type1" route="ns" depart="653.6522495505809" />
<vehicle id="type1_322" type="type1" route="ns" depart="654.961985325952" />
<vehicle id="type1_323" type="type1" route="en" depart="663.6936995636358" />
<vehicle id="type1_324" type="type1" route="wn" depart="665.6906055254514" />
<vehicle id="type1_325" type="type1" route="es" depart="676.3343352979144" />
<vehicle id="type1_326" type="type1" route="we" depart="678.4356061187208" />
<vehicle id="type1_327" type="type1" route="we" depart="679.988333894845" />
<vehicle id="type1_328" type="type1" route="sn" depart="681.6173940684461" />
<vehicle id="type1_329" type="type1" route="se" depart="684.2089871184891" />
<vehicle id="type1_330" type="type1" route="we" depart="686.6164225298189" />
<vehicle id="type1_331" type="type1" route="ns" depart="689.145097239561" />
<vehicle id="type1_332" type="type1" route="es" depart="689.5992387374494" />
<vehicle id="type1_333" type="type1" route="nw" depart="690.1176094816274" />
<vehicle id="type1_334" type="type1" route="nw" depart="690.167999891495" />
<vehicle id="type1_335" type="type1" route="ew" depart="690.4509710108388" />
<vehicle id="type1_336" type="type1" route="sw" depart="690.9932294227675" />
<vehicle id="type1_337" type="type1" route="es" depart="691.3237936830462" />
<vehicle id="type1_338" type="type1" route="se" depart="692.5988565239593" />
<vehicle id="type1_339" type="type1" route="ew" depart="695.5839886874992" />
<vehicle id="type1_340" type="type1" route="sn" depart="696.2212412712121" />
<vehicle id="type1_341" type="type1" route="nw" depart="696.7833969640875" />
<vehicle id="type1_342" type="type1" route="sw" depart="698.1197102164289" />
<vehicle id="type1_343" type="type1" route="ne" depart="699.3536987079509" />
<vehicle id="type1_344" type="type1" route="ne" depart="702.6796112502852" />
<vehicle id="type1_345" type="type1" route="we" depart="703.6333129205462" />
<vehicle id="type1_346" type="type1" route="sn" depart="707.3497791805295" />
<vehicle id="type1_347" type="type1" route="se" depart="708.8496364360874" />
<vehicle id="type1_348" type="type1" route="we" depart="709.184992754032" />
<vehicle id="type1_349" type="type1" route="we" depart="709.8942928858289" />
<vehicle id="emv_7" type="rescue" route="ew" depart="711.0562057003848" />
<vehicle id="type1_350" type="type1" route="we" depart="711.7758786142042" />
<vehicle id="type1_351" type="type1" route="es" depart="712.2020711962781" />
<vehicle id="type1_352" type="type1" route="en" depart="714.3344581103653" />
<vehicle id="type1_353" type="type1" route="sw" depart="714.3992159465118" />
<vehicle id="type1_354" type="type1" route="wn" depart="714.4243178775353" />
<vehicle id="type1_355" type="type1" route="en" depart="714.5723432787987" />
<vehicle id="type1_356" type="type1" route="sw" depart="717.4354812226171" />
<vehicle id="type1_357" type="type1" route="ns" depart="721.1218365667137" />
<vehicle id="type1_358" type="type1" route="nw" depart="724.5882358552996" />
<vehicle id="type1_359" type="type1" route="sn" depart="724.7741246947708" />