<nodes> <!-- The opening tag -->

  <node id="0" x="0.0" y="0.0" type="traffic_light"/> <!-- def. of node "0" -->
  <node id="1" x="0.0" y="+500.0" type="priority"/> <!-- def. of node "1" -->
  <node id="2" x="+500.0" y="0.0" type="priority"/> <!-- def. of node "2" -->
  <node id="3" x="0.0" y="-500.0" type="priority"/> <!-- def. of node "3" -->
  <node id="4" x="-500.0" y="0.0" type="priority"/> <!-- def. of node "4" -->
</nodes> <!-- The closing tag -->
