<routes>
            <vType id="type1" accel="0.8" decel="4.5" sigma="0.5" length="5" maxSpeed="70"/>
            <vType id="rescue" vClass="emergency" speedFactor="1.5" guiShape="emergency">
                <param key="has.bluelight.device" value="true"/>
            </vType>
            <route id="ne" edges="ni eo"/>
            <route id="ns" edges="ni so"/>
            <route id="nw" edges="ni wo"/>
            <route id="en" edges="ei no"/>
            <route id="es" edges="ei so"/>
            <route id="ew" edges="ei wo"/>
            <route id="sn" edges="si no"/>
            <route id="se" edges="si eo"/>
            <route id="sw" edges="si wo"/>
            <route id="wn" edges="wi no"/>
            <route id="we" edges="wi eo"/>
            <route id="ws" edges="wi so"/>
        
            <personFlow id="p_we" begin="0" end="200" period="50">
                <walk route="we"/>
            </personFlow>
                         
            <personFlow id="p_ns" begin="0" end="200" period="50">
                <walk route="ns"/>
            </personFlow>
                         
            <personFlow id="p_sn" begin="0" end="200" period="50">
                <walk route="sn"/>
            </personFlow>
                         
            <personFlow id="p_ew" begin="0" end="200" period="50">
                <walk route="ew"/>
            </personFlow>
                         <vehicle id="type1_1" type="type1" route="en" depart="1.1175778125162168" />
<vehicle id="type1_2" type="type1" route="we" depart="3.429180071990716" />
<vehicle id="type1_3" type="type1" route="es" depart="3.4399620662750316" />
<vehicle id="type1_4" type="type1" route="ne" depart="4.3712655848398185" />
<vehicle id="type1_5" type="type1" route="sn" depart="7.488740376072728" />
<vehicle id="type1_6" type="type1" route="ne" depart="8.634436357356783" />
<vehicle id="type1_7" type="type1" route="es" depart="11.982669382202374" />
<vehicle id="type1_8" type="type1" route="nw" depart="14.207498024093045" />
<vehicle id="type1_9" type="type1" route="we" depart="15.16302655820537" />
<vehicle id="type1_10" type="type1" route="nw" depart="16.478660639769068" />
<vehicle id="type1_11" type="type1" route="ws" depart="16.68078039312437" />
<vehicle id="type1_12" type="type1" route="ns" depart="17.019511387056426" />
<vehicle id="type1_13" type="type1" route="nw" depart="17.338003228483647" />
<vehicle id="type1_14" type="type1" route="sn" depart="17.393199235791077" />
<vehicle id="type1_15" type="type1" route="ws" depart="17.723348281312376" />
<vehicle id="type1_16" type="type1" route="sn" depart="18.04942040657744" />
<vehicle id="type1_17" type="type1" route="ne" depart="20.99782816558921" />
<vehicle id="type1_18" type="type1" route="nw" depart="23.625303326927227" />
<vehicle id="type1_19" type="type1" route="es" depart="24.685617071555583" />
<vehicle id="type1_20" type="type1" route="wn" depart="25.35366771783477" />
<vehicle id="type1_21" type="type1" route="wn" depart="26.735131008323528" />
<vehicle id="type1_22" type="type1" route="es" depart="27.44032946631363" />
<vehicle id="type1_23" type="type1" route="ws" depart="29.314195345588526" />
<vehicle id="type1_24" type="type1" route="we" depart="29.744597678292955" />
<vehicle id="type1_25" type="type1" route="nw" depart="32.27802939802258" />
<vehicle id="type1_26" type="type1" route="ne" depart="32.94157580666813" />
<vehicle id="type1_27" type="type1" route="es" depart="35.31208725085923" />
<vehicle id="type1_28" type="type1" route="ws" depart="38.01856989574728" />
<vehicle id="type1_29" type="type1" route="en" depart="41.09410300413221" />
<vehicle id="type1_30" type="type1" route="es" depart="41.770243163275815" />
<vehicle id="type1_31" type="type1" route="nw" depart="42.400987120132825" />
<vehicle id="type1_32" type="type1" route="ew" depart="44.6129272860667" />
<vehicle id="type1_33" type="type1" route="ns" depart="47.873640084967654" />
<vehicle id="type1_34" type="type1" route="se" depart="49.71100586156814" />
<vehicle id="type1_35" type="type1" route="en" depart="51.631320919297536" />
<vehicle id="type1_36" type="type1" route="we" depart="51.90930322433621" />
<vehicle id="type1_37" type="type1" route="sw" depart="55.31451050126285" />
<vehicle id="type1_38" type="type1" route="se" depart="58.85291716301738" />
<vehicle id="type1_39" type="type1" route="sw" depart="68.20859202798451" />
<vehicle id="type1_40" type="type1" route="nw" depart="71.27005549214043" />
<vehicle id="type1_41" type="type1" route="wn" depart="72.16817769873995" />
<vehicle id="type1_42" type="type1" route="we" depart="75.31269970409788" />
<vehicle id="type1_43" type="type1" route="ew" depart="83.51078886243076" />
<vehicle id="type1_44" type="type1" route="wn" depart="84.10915395029268" />
<vehicle id="type1_45" type="type1" route="sw" depart="87.31642486647868" />
<vehicle id="type1_46" type="type1" route="es" depart="89.52490409812683" />
<vehicle id="type1_47" type="type1" route="wn" depart="90.0879002930832" />
<vehicle id="type1_48" type="type1" route="se" depart="91.06894637357775" />
<vehicle id="type1_49" type="type1" route="es" depart="96.80492481260877" />
<vehicle id="type1_50" type="type1" route="nw" depart="97.06393003449635" />
<vehicle id="type1_51" type="type1" route="nw" depart="98.75389719447332" />
<vehicle id="type1_52" type="type1" route="ws" depart="101.83035376909372" />
<vehicle id="emv_1" type="rescue" route="nw" depart="110.5627224040477" />
<vehicle id="type1_53" type="type1" route="se" depart="111.32663947106545" />
<vehicle id="type1_54" type="type1" route="we" depart="114.88258027886204" />
<vehicle id="type1_55" type="type1" route="wn" depart="115.021962478978" />
<vehicle id="type1_56" type="type1" route="ws" depart="115.5114243365183" />
<vehicle id="type1_57" type="type1" route="ew" depart="116.69434726167694" />
<vehicle id="type1_58" type="type1" route="we" depart="119.306820852577" />
<vehicle id="type1_59" type="type1" route="en" depart="119.72672749055364" />
<vehicle id="type1_60" type="type1" route="nw" depart="122.28550257956546" />
<vehicle id="type1_61" type="type1" route="we" depart="122.97211833441736" />
<vehicle id="type1_62" type="type1" route="en" depart="123.09333230247877" />
<vehicle id="type1_63" type="type1" route="we" depart="123.4969515790298" />
<vehicle id="type1_64" type="type1" route="ws" depart="124.12693074254706" />
<vehicle id="type1_65" type="type1" route="ns" depart="124.79466090374002" />
<vehicle id="type1_66" type="type1" route="es" depart="129.92479969795943" />
<vehicle id="type1_67" type="type1" route="ns" depart="142.3366490484136" />
<vehicle id="type1_68" type="type1" route="ns" depart="143.39225197787113" />
<vehicle id="type1_69" type="type1" route="es" depart="150.69348647095342" />
<vehicle id="type1_70" type="type1" route="ne" depart="151.5324146805887" />
<vehicle id="type1_71" type="type1" route="ws" depart="154.2485963921883" />
<vehicle id="type1_72" type="type1" route="sw" depart="155.65012500531444" />
<vehicle id="type1_73" type="type1" route="se" depart="157.34117578116457" />
<vehicle id="type1_74" type="type1" route="ws" depart="157.8627830982262" />
<vehicle id="type1_75" type="type1" route="se" depart="158.31603356746618" />
<vehicle id="type1_76" type="type1" route="nw" depart="160.58620090701208" />
<vehicle id="type1_77" type="type1" route="es" depart="161.43599087356156" />
<vehicle id="type1_78" type="type1" route="ne" depart="162.42962629697746" />
<vehicle id="type1_79" type="type1" route="en" depart="162.43104258362303" />
<vehicle id="type1_80" type="type1" route="ws" depart="165.01213962000762" />
<vehicle id="type1_81" type="type1" route="sw" depart="171.01909414372687" />
<vehicle id="type1_82" type="type1" route="we" depart="171.65398972480372" />
<vehicle id="type1_83" type="type1" route="ws" depart="172.8414776306304" />
<vehicle id="type1_84" type="type1" route="se" depart="179.08239806158463" />
<vehicle id="type1_85" type="type1" route="ns" depart="180.23947137405065" />
<vehicle id="type1_86" type="type1" route="ws" depart="181.20704590206344" />
<vehicle id="type1_87" type="type1" route="sn" depart="186.16695527319035" />
<vehicle id="type1_88" type="type1" route="nw" depart="188.46249813770413" />
<vehicle id="type1_89" type="type1" route="es" depart="190.1684204947987" />
<vehicle id="type1_90" type="type1" route="nw" depart="194.7188979205876" />
<vehicle id="type1_91" type="type1" route="sn" depart="197.62617111919445" />
<vehicle id="type1_92" type="type1" route="se" depart="201.73557163448123" />
<vehicle id="type1_93" type="type1" route="nw" depart="207.2297908787711" />
<vehicle id="type1_94" type="type1" route="se" depart="208.8056385522832" />
<vehicle id="type1_95" type="type1" route="ne" depart="211.6191776354819" />
<vehicle id="type1_96" type="type1" route="es" depart="214.5302073741685" />
<vehicle id="type1_97" type="type1" route="ne" depart="215.05820979338063" />
<vehicle id="type1_98" type="type1" route="ws" depart="215.67410688215654" />
<vehicle id="type1_99" type="type1" route="ne" depart="216.13752496739673" />
<vehicle id="type1_100" type="type1" route="ws" depart="219.32487261888642" />
<vehicle id="type1_101" type="type1" route="es" depart="223.79077914398115" />
<vehicle id="type1_102" type="type1" route="sw" depart="223.93732007264282" />
<vehicle id="type1_103" type="type1" route="we" depart="223.9746497471553" />
<vehicle id="type1_104" type="type1" route="wn" depart="228.58890920465865" />
<vehicle id="type1_105" type="type1" route="es" depart="229.67023171140343" />
<vehicle id="type1_106" type="type1" route="we" depart="231.97583574332526" />
<vehicle id="type1_107" type="type1" route="ws" depart="232.47515441346147" />
<vehicle id="type1_108" type="type1" route="es" depart="233.32618188345856" />
<vehicle id="type1_109" type="type1" route="sn" depart="233.69952218648575" />
<vehicle id="type1_110" type="type1" route="en" depart="234.09438954191805" />
<vehicle id="type1_111" type="type1" route="we" depart="234.46527130841147" />
<vehicle id="type1_112" type="type1" route="sn" depart="235.1855255121298" />
<vehicle id="type1_113" type="type1" route="ew" depart="235.56946010250294" />
<vehicle id="type1_114" type="type1" route="se" depart="236.27317857052387" />
<vehicle id="type1_115" type="type1" route="es" depart="237.08751148145046" />
<vehicle id="type1_116" type="type1" route="we" depart="238.16573079099342" />
<vehicle id="type1_117" type="type1" route="se" depart="239.59974732557035" />
<vehicle id="type1_118" type="type1" route="ew" depart="242.02966042412572" />
<vehicle id="type1_119" type="type1" route="wn" depart="242.44460154851095" />
<vehicle id="type1_120" type="type1" route="nw" depart="243.19339358685136" />
<vehicle id="type1_121" type="type1" route="nw" depart="248.1087234446402" />
<vehicle id="type1_122" type="type1" route="ws" depart="248.8529538583133" />
<vehicle id="type1_123" type="type1" route="es" depart="251.87303224910121" />
<vehicle id="type1_124" type="type1" route="ws" depart="251.91879427588984" />
<vehicle id="type1_125" type="type1" route="sw" depart="252.17291003777646" />
<vehicle id="type1_126" type="type1" route="nw" depart="252.30680236115367" />
<vehicle id="type1_127" type="type1" route="we" depart="253.06135493671528" />
<vehicle id="type1_128" type="type1" route="nw" depart="254.95481548112105" />
<vehicle id="type1_129" type="type1" route="sn" depart="256.08279066678284" />
<vehicle id="type1_130" type="type1" route="we" depart="257.121072421958" />
<vehicle id="type1_131" type="type1" route="es" depart="259.6516151358648" />
<vehicle id="type1_132" type="type1" route="ns" depart="260.9819195642924" />
<vehicle id="type1_133" type="type1" route="ws" depart="264.10348673454" />
<vehicle id="type1_134" type="type1" route="sn" depart="264.43152665455096" />
<vehicle id="type1_135" type="type1" route="sw" depart="266.28430900028707" />
<vehicle id="type1_136" type="type1" route="ws" depart="268.1882408987869" />
<vehicle id="type1_137" type="type1" route="ne" depart="274.7779455991108" />
<vehicle id="type1_138" type="type1" route="se" depart="275.97984751209475" />
<vehicle id="type1_139" type="type1" route="we" depart="284.84712664865947" />
<vehicle id="type1_140" type="type1" route="es" depart="285.47379113389735" />
<vehicle id="type1_141" type="type1" route="ew" depart="286.9175158745954" />
<vehicle id="type1_142" type="type1" route="wn" depart="287.56325797441787" />
<vehicle id="type1_143" type="type1" route="we" depart="287.8145917132771" />
<vehicle id="type1_144" type="type1" route="ew" depart="291.85382441802415" />
<vehicle id="type1_145" type="type1" route="es" depart="300.25022301747754" />
<vehicle id="type1_146" type="type1" route="en" depart="302.06165794034644" />
<vehicle id="type1_147" type="type1" route="ns" depart="306.33905693675746" />
<vehicle id="type1_148" type="type1" route="ne" depart="309.86619260972526" />
<vehicle id="type1_149" type="type1" route="ws" depart="313.4263130833494" />
<vehicle id="type1_150" type="type1" route="ne" depart="315.58790553407306" />
<vehicle id="type1_151" type="type1" route="en" depart="315.8128367796836" />
<vehicle id="type1_152" type="type1" route="se" depart="316.12359405850736" />
<vehicle id="type1_153" type="type1" route="es" depart="318.45044816953225" />
<vehicle id="type1_154" type="type1" route="ws" depart="321.8382947882326" />
<vehicle id="type1_155" type="type1" route="sn" depart="331.1253030754492" />
<vehicle id="type1_156" type="type1" route="ew" depart="331.38937018668724" />
<vehicle id="type1_157" type="type1" route="ne" depart="332.6945749983521" />
<vehicle id="type1_158" type="type1" route="es" depart="335.52563895643874" />
<vehicle id="type1_159" type="type1" route="en" depart="338.6454660891756" />
<vehicle id="type1_160" type="type1" route="es" depart="339.471962794177" />
<vehicle id="type1_161" type="type1" route="ne" depart="339.5477623083233" />
<vehicle id="type1_162" type="type1" route="ns" depart="339.63659787623044" />
<vehicle id="type1_163" type="type1" route="se" depart="344.068044475433" />
<vehicle id="type1_164" type="type1" route="ns" depart="344.89244884520565" />
<vehicle id="type1_165" type="type1" route="wn" depart="350.13613616964074" />
<vehicle id="type1_166" type="type1" route="ws" depart="355.7728079157414" />
<vehicle id="type1_167" type="type1" route="nw" depart="356.0218969183569" />
<vehicle id="type1_168" type="type1" route="es" depart="357.7952600858878" />
<vehicle id="type1_169" type="type1" route="ne" depart="361.5591590444503" />
<vehicle id="type1_170" type="type1" route="ns" depart="363.23452904498276" />
<vehicle id="type1_171" type="type1" route="wn" depart="363.689977266146" />
<vehicle id="emv_2" type="rescue" route="ne" depart="365.67706585906916" />
<vehicle id="type1_172" type="type1" route="ne" depart="366.04763892294795" />
<vehicle id="emv_3" type="rescue" route="sw" depart="368.66387815088024" />
<vehicle id="type1_173" type="type1" route="nw" depart="370.16036268677107" />
<vehicle id="type1_174" type="type1" route="wn" depart="371.30041928805053" />
<vehicle id="type1_175" type="type1" route="en" depart="372.2714075654739" />
<vehicle id="type1_176" type="type1" route="sw" depart="378.42103629044806" />
<vehicle id="type1_177" type="type1" route="ws" depart="379.9802606253189" />
<vehicle id="type1_178" type="type1" route="ne" depart="380.13929833001004" />
<vehicle id="type1_179" type="type1" route="es" depart="381.6841342032992" />
<vehicle id="type1_180" type="type1" route="es" depart="381.70729595313725" />
<vehicle id="type1_181" type="type1" route="se" depart="389.09357414971254" />
<vehicle id="type1_182" type="type1" route="wn" depart="389.3976581384634" />
<vehicle id="type1_183" type="type1" route="sn" depart="396.5363506633218" />
<vehicle id="type1_184" type="type1" route="ne" depart="404.9424911423119" />
<vehicle id="type1_185" type="type1" route="ew" depart="407.84517273565825" />
<vehicle id="type1_186" type="type1" route="ws" depart="408.75083605542414" />
<vehicle id="type1_187" type="type1" route="ns" depart="413.5069611242991" />
<vehicle id="type1_188" type="type1" route="ns" depart="413.57978933266037" />
<vehicle id="type1_189" type="type1" route="ns" depart="414.13904720931794" />
<vehicle id="type1_190" type="type1" route="es" depart="415.08196721855677" />
<vehicle id="type1_191" type="type1" route="ns" depart="415.25332900782394" />
<vehicle id="type1_192" type="type1" route="ns" depart="418.1502122474408" />
<vehicle id="type1_193" type="type1" route="en" depart="419.7990613348656" />
<vehicle id="type1_194" type="type1" route="nw" depart="419.80074059026447" />
<vehicle id="type1_195" type="type1" route="ws" depart="420.4890005400613" />
<vehicle id="type1_196" type="type1" route="ns" depart="422.7145885090764" />
<vehicle id="type1_197" type="type1" route="es" depart="427.4492836295235" />
<vehicle id="type1_198" type="type1" route="ew" depart="429.4860675016593" />
<vehicle id="type1_199" type="type1" route="wn" depart="431.36201713948" />
<vehicle id="type1_200" type="type1" route="wn" depart="434.15829394415954" />
<vehicle id="type1_201" type="type1" route="sw" depart="434.49669264815964" />
<vehicle id="type1_202" type="type1" route="sn" depart="436.9710325301992" />
<vehicle id="type1_203" type="type1" route="es" depart="437.71722948477355" />
<vehicle id="type1_204" type="type1" route="ws" depart="437.92232678246324" />
<vehicle id="type1_205" type="type1" route="sn" depart="439.505534801869" />
<vehicle id="type1_206" type="type1" route="ws" depart="440.1077038078473" />
<vehicle id="type1_207" type="type1" route="ns" depart="440.8695678217387" />
<vehicle id="type1_208" type="type1" route="ew" depart="445.99730006044814" />
<vehicle id="type1_209" type="type1" route="en" depart="449.3099341341215" />
<vehicle id="type1_210" type="type1" route="we" depart="449.31944112753644" />
<vehicle id="type1_211" type="type1" route="sn" depart="450.44475752637567" />
<vehicle id="type1_212" type="type1" route="wn" depart="451.9458849959477" />
<vehicle id="type1_213" type="type1" route="en" depart="453.6350279190034" />
<vehicle id="type1_214" type="type1" route="se" depart="453.65341204835295" />
<vehicle id="emv_4" type="rescue" route="wn" depart="457.9314728943704" />
<vehicle id="type1_215" type="type1" route="ns" depart="458.5797934116585" />
<vehicle id="type1_216" type="type1" route="se" depart="458.72467266785867" />
<vehicle id="type1_217" type="type1" route="ns" depart="461.7865117825141" />
<vehicle id="type1_218" type="type1" route="wn" depart="462.11686331874364" />
<vehicle id="type1_219" type="type1" route="we" depart="464.26555642941474" />
<vehicle id="type1_220" type="type1" route="sw" depart="465.0594563783212" />
<vehicle id="type1_221" type="type1" route="es" depart="468.70724458968925" />
<vehicle id="type1_222" type="type1" route="sw" depart="472.07594601488427" />
<vehicle id="type1_223" type="type1" route="ne" depart="472.68969407398765" />
<vehicle id="type1_224" type="type1" route="sw" depart="476.4785738483416" />
<vehicle id="type1_225" type="type1" route="es" depart="478.4651207537451" />
<vehicle id="type1_226" type="type1" route="ne" depart="478.89613783958976" />
<vehicle id="type1_227" type="type1" route="ew" depart="481.2443139307944" />
<vehicle id="type1_228" type="type1" route="se" depart="481.8340263166423" />
<vehicle id="type1_229" type="type1" route="sw" depart="483.83272438363883" />
<vehicle id="type1_230" type="type1" route="ws" depart="484.0154351957618" />
<vehicle id="type1_231" type="type1" route="wn" depart="485.47554398129245" />
<vehicle id="type1_232" type="type1" route="ew" depart="486.26166416747526" />
<vehicle id="type1_233" type="type1" route="ne" depart="487.8162044871895" />
<vehicle id="type1_234" type="type1" route="se" depart="495.2105810028974" />
<vehicle id="type1_235" type="type1" route="ns" depart="495.4926088230778" />
<vehicle id="type1_236" type="type1" route="ew" depart="497.40668776940805" />
<vehicle id="type1_237" type="type1" route="ne" depart="500.36693122425777" />
<vehicle id="type1_238" type="type1" route="en" depart="500.5786896133835" />
<vehicle id="type1_239" type="type1" route="ew" depart="500.72531088694654" />
<vehicle id="type1_240" type="type1" route="ws" depart="500.9179701896424" />
<vehicle id="type1_241" type="type1" route="nw" depart="501.8720833603705" />
<vehicle id="type1_242" type="type1" route="se" depart="502.4438134600945" />
<vehicle id="type1_243" type="type1" route="sw" depart="505.3115150517086" />
<vehicle id="type1_244" type="type1" route="we" depart="505.3415730173397" />
<vehicle id="type1_245" type="type1" route="we" depart="505.66961384109584" />
<vehicle id="type1_246" type="type1" route="ws" depart="505.80583102985764" />
<vehicle id="type1_247" type="type1" route="ne" depart="505.85534254773853" />
<vehicle id="type1_248" type="type1" route="se" depart="507.7210191604159" />
<vehicle id="type1_249" type="type1" route="es" depart="510.07180402086146" />
<vehicle id="type1_250" type="type1" route="ew" depart="510.1679076659901" />
<vehicle id="type1_251" type="type1" route="en" depart="513.0979056627452" />
<vehicle id="type1_252" type="type1" route="ns" depart="515.4217101964593" />
<vehicle id="type1_253" type="type1" route="wn" depart="515.5512390088905" />
<vehicle id="type1_254" type="type1" route="se" depart="517.0369200749376" />
<vehicle id="type1_255" type="type1" route="we" depart="518.385234554853" />
<vehicle id="type1_256" type="type1" route="ne" depart="518.460915944994" />
<vehicle id="type1_257" type="type1" route="sn" depart="519.6063416667712" />
<vehicle id="type1_258" type="type1" route="ws" depart="520.1347045322912" />
<vehicle id="type1_259" type="type1" route="sn" depart="525.4745319555975" />
<vehicle id="type1_260" type="type1" route="se" depart="526.3194844319169" />
<vehicle id="type1_261" type="type1" route="ew" depart="530.2615824907114" />
<vehicle id="type1_262" type="type1" route="sw" depart="533.5525099329465" />
<vehicle id="type1_263" type="type1" route="se" depart="536.2932270440359" />
<vehicle id="type1_264" type="type1" route="se" depart="536.5623725865133" />
<vehicle id="type1_265" type="type1" route="sn" depart="544.7004583004036" />
<vehicle id="type1_266" type="type1" route="en" depart="546.7266122115745" />
<vehicle id="emv_5" type="rescue" route="ew" depart="551.0768105947349" />
<vehicle id="type1_267" type="type1" route="ew" depart="551.6751185072944" />
<vehicle id="type1_268" type="type1" route="we" depart="551.6998885923663" />
<vehicle id="type1_269" type="type1" route="sw" depart="552.1088700142319" />
<vehicle id="type1_270" type="type1" route="ne" depart="553.953961115069" />
<vehicle id="type1_271" type="type1" route="nw" depart="554.3745518840301" />
<vehicle id="type1_272" type="type1" route="se" depart="555.2881411726252" />
<vehicle id="type1_273" type="type1" route="nw" depart="557.0722615396417" />
<vehicle id="type1_274" type="type1" route="se" depart="564.0559742578363" />
<vehicle id="type1_275" type="type1" route="se" depart="566.4369620880216" />
<vehicle id="type1_276" type="type1" route="we" depart="569.1773018356336" />
<vehicle id="type1_277" type="type1" route="sn" depart="570.9769164900875" />
<vehicle id="type1_278" type="type1" route="ns" depart="571.6576593346098" />
<vehicle id="type1_279" type="type1" route="en" depart="572.9684838499992" />
<vehicle id="type1_280" type="type1" route="ws" depart="579.3590750980601" />
<vehicle id="type1_281" type="type1" route="wn" depart="581.8572714339967" />
<vehicle id="type1_282" type="type1" route="es" depart="581.9632696600726" />
<vehicle id="type1_283" type="type1" route="ns" depart="585.0650642930143" />
<vehicle id="type1_284" type="type1" route="wn" depart="590.3873228826908" />
<vehicle id="type1_285" type="type1" route="ne" depart="592.4259239575663" />
<vehicle id="type1_286" type="type1" route="nw" depart="592.8355920491917" />
<vehicle id="type1_287" type="type1" route="we" depart="595.6254230391627" />
<vehicle id="type1_288" type="type1" route="ws" depart="600.3594000061092" />
<vehicle id="type1_289" type="type1" route="en" depart="600.682323470052" />
<vehicle id="type1_290" type="type1" route="ne" depart="601.7541926962041" />
<vehicle id="type1_291" type="type1" route="ws" depart="602.6909479053769" />
<vehicle id="type1_292" type="type1" route="ne" depart="607.5439350810669" />
<vehicle id="type1_293" type="type1" route="en" depart="609.4765443646976" />
<vehicle id="type1_294" type="type1" route="we" depart="614.683844946409" />
<vehicle id="type1_295" type="type1" route="we" depart="615.6364288749029" />
<vehicle id="type1_296" type="type1" route="wn" depart="617.2143855828213" />
<vehicle id="type1_297" type="type1" route="we" depart="619.600955717851" />
<vehicle id="type1_298" type="type1" route="en" depart="621.8422583269794" />
<vehicle id="type1_299" type="type1" route="se" depart="623.4270821744952" />
<vehicle id="type1_300" type="type1" route="ns" depart="624.7117017172413" />
<vehicle id="type1_301" type="type1" route="ns" depart="624.920646627041" />
<vehicle id="type1_302" type="type1" route="nw" depart="627.2521263949643" />
<vehicle id="type1_303" type="type1" route="en" depart="627.9879250976503" />
<vehicle id="type1_304" type="type1" route="we" depart="628.0458859299667" />
<vehicle id="type1_305" type="type1" route="en" depart="628.0957274419854" />
<vehicle id="type1_306" type="type1" route="sn" depart="629.484092559241" />
<vehicle id="type1_307" type="type1" route="ne" depart="629.7508074362684" />
<vehicle id="type1_308" type="type1" route="sw" depart="631.8879468500271" />
<vehicle id="type1_309" type="type1" route="en" depart="632.5870281583486" />
<vehicle id="type1_310" type="type1" route="sn" depart="633.4204411547486" />
<vehicle id="type1_311" type="type1" route="wn" depart="635.8951778759952" />
<vehicle id="type1_312" type="type1" route="es" depart="636.516281703676" />
<vehicle id="type1_313" type="type1" route="sn" depart="639.8033056638435" />
<vehicle id="type1_314" type="type1" route="ne" depart="639.986319274154" />
<vehicle id="type1_315" type="type1" route="se" depart="642.9595655306107" />
<vehicle id="type1_316" type="type1" route="se" depart="643.6456869988393" />
<vehicle id="type1_317" type="type1" route="ns" depart="645.4487407090072" />
<vehicle id="type1_318" type="type1" route="nw" depart="648.516728198308" />
<vehicle id="type1_319" type="type1" route="nw" depart="650.3059592398223" />
<vehicle id="type1_320" type="type1" route="ew" depart="650.4964199552732" />
<vehicle id="type1_321" type="type1" route="nw" depart="653.7415984787103" />
<vehicle id="emv_6" type="rescue" route="ws" depart="658.1882064323951" />
<vehicle id="type1_322" type="type1" route="we" depart="658.4359403743334" />
<vehicle id="type1_323" type="type1" route="ew" depart="661.3717971135002" />
<vehicle id="type1_324" type="type1" route="ew" depart="665.3573811819066" />
<vehicle id="type1_325" type="type1" route="en" depart="668.298746840096" />
<vehicle id="type1_326" type="type1" route="se" depart="670.1348509166194" />
<vehicle id="type1_327" type="type1" route="se" depart="676.7864871852103" />
<vehicle id="type1_328" type="type1" route="ew" depart="681.0342794709603" />
<vehicle id="type1_329" type="type1" route="we" depart="686.0159375256287" />
<vehicle id="type1_330" type="type1" route="sn" depart="688.7962298866208" />
<vehicle id="emv_7" type="rescue" route="en" depart="689.1119109846385" />
<vehicle id="type1_331" type="type1" route="ws" depart="690.6210421815455" />
<vehicle id="type1_332" type="type1" route="sn" depart="691.2036980897683" />
<vehicle id="type1_333" type="type1" route="es" depart="692.451952758602" />
<vehicle id="type1_334" type="type1" route="es" depart="693.192494591476" />
<vehicle id="type1_335" type="type1" route="ns" depart="693.949523961565" />
<vehicle id="type1_336" type="type1" route="ws" depart="694.3506596773951" />
<vehicle id="type1_337" type="type1" route="we" depart="696.1164694642241" />
<vehicle id="type1_338" type="type1" route="we" depart="696.5765343163009" />
<vehicle id="type1_339" type="type1" route="nw" depart="698.9753630801492" />
<vehicle id="type1_340" type="type1" route="nw" depart="704.9376227746596" />
<vehicle id="type1_341" type="type1" route="sw" depart="710.4182276078776" />
<vehicle id="type1_342" type="type1" route="es" depart="710.5163101991766" />
<vehicle id="type1_343" type="type1" route="sw" depart="714.6635669172699" />
<vehicle id="type1_344" type="type1" route="ws" depart="715.9495358259511" />
<vehicle id="type1_345" type="type1" route="ne" depart="719.0102302447947" />
<vehicle id="type1_346" type="type1" route="nw" depart="724.497816102685" />
<vehicle id="type1_347" type="type1" route="ne" depart="724.6127608133027" />
<vehicle id="type1_348" type="type1" route="ew" depart="728.9561598890596" />
<vehicle id="type1_349" type="type1" route="ws" depart="729.2162640789911" />
<vehicle id="type1_350" type="type1" route="es" depart="731.5808875090901" />
<vehicle id="type1_351" type="type1" route="en" depart="731.7575569725988" />
<vehicle id="type1_352" type="type1" route="sw" depart="732.0349412910564" />
<vehicle id="type1_353" type="type1" route="en" depart="732.7636249817551" />
<vehicle id="type1_354" type="type1" route="ne" depart="733.9198150123867" />
<vehicle id="type1_355" type="type1" route="ns" depart="740.1892995132736" />
<vehicle id="type1_356" type="type1" route="ns" depart="741.6799045554777" />
<vehicle id="type1_357" type="type1" route="we" depart="747.4932530313489" />
<vehicle id="type1_358" type="type1" route="wn" depart="749.2332011267034" />
<vehicle id="type1_359" type="type1" route="en" depart="750.681504695948" />